@<TRIPOS>MOLECULE
GTP
45   47    1
SMALL
USER_CHARGES


@<TRIPOS>ATOM
      1 PG          4.5660   31.3910   21.6350 P.3       1 GTP         0.0000 
      2 O1G         4.6130   31.9070   23.0690 O.co2     1 GTP         0.0000 
      3 O2G         3.8920   32.3190   20.6310 O.co2     1 GTP         0.0000 
      4 O3G         4.1430   30.0120   21.6130 O.3       1 GTP         0.0000 
      5 O3B         6.1600   31.3600   21.2280 O.3       1 GTP         0.0000 
      6 PB          6.8770   31.2020   19.7450 P.3       1 GTP         0.0000 
      7 O1B         7.0790   29.7090   19.4730 O.co2     1 GTP         0.0000 
      8 O2B         6.1250   31.9700   18.7490 O.co2     1 GTP         0.0000 
      9 O3A         8.2510   31.8900   20.0030 O.3       1 GTP         0.0000 
     10 PA          8.8460   33.2610   19.4110 P.3       1 GTP         0.0000 
     11 O1A         8.8880   33.2560   17.9570 O.co2     1 GTP         0.0000 
     12 O2A         8.1050   34.3980   20.1290 O.co2     1 GTP         0.0000 
     13 O5'        10.4300   33.1530   19.9000 O.3       1 GTP         0.0000 
     14 C5'        10.5490   33.0440   21.3780 C.3       1 GTP         0.0000 
     15 C4'        12.0460   33.6180   21.4740 C.3       1 GTP         0.0000 
     16 O4'        13.0520   32.8300   20.8180 O.3       1 GTP         0.0000 
     17 C3'        12.3070   34.9690   21.0570 C.3       1 GTP         0.0000 
     18 O3'        13.1090   35.6720   21.9710 O.3       1 GTP         0.0000 
     19 C2'        12.8390   34.9710   19.5930 C.3       1 GTP         0.0000 
     20 O2'        13.6720   35.9610   19.3550 O.3       1 GTP         0.0000 
     21 C1'        13.8460   33.6220   19.9270 C.3       1 GTP         0.0000 
     22 N9         14.0010   32.8330   18.6490 N.pl3     1 GTP         0.0000 
     23 C8         12.9340   32.4520   17.8480 C.ar      1 GTP         0.0000 
     24 N7         13.6400   31.7980   16.8990 N.2       1 GTP         0.0000 
     25 C5         15.0290   31.8890   17.0010 C.ar      1 GTP         0.0000 
     26 C6         15.8990   31.3940   16.2380 C.ar      1 GTP         0.0000 
     27 O6         15.9820   30.6800   15.1910 O.2       1 GTP         0.0000 
     28 N1         17.2740   31.6280   16.8000 N.pl3     1 GTP         0.0000 
     29 C2         17.3040   32.2950   17.8960 C.ar      1 GTP         0.0000 
     30 N2         18.6770   32.4500   18.4750 N.pl3     1 GTP         0.0000 
     31 N3         16.3840   32.7360   18.7390 N.2       1 GTP         0.0000 
     32 C4         15.2180   32.5170   18.1350 C.ar      1 GTP         0.0000 
     33 HOG3        3.1013   29.7523   21.8527 H         1 GTP         0.0000 
     34 H5'         9.7718   33.6593   21.8548 H         1 GTP         0.0000 
     35 H5''       10.4216   31.9939   21.6797 H         1 GTP         0.0000 
     36 H4'        12.2583   33.6282   22.5533 H         1 GTP         0.0000 
     37 H3'        11.3699   35.5332   21.1732 H         1 GTP         0.0000 
     38 HO3'       12.8165   35.7279   23.0299 H         1 GTP         0.0000 
     39 H2'        12.1431   35.1631   18.7630 H         1 GTP         0.0000 
     40 HO2'       13.2830   36.9601   19.1092 H         1 GTP         0.0000 
     41 H1'        14.8453   33.7628   20.3647 H         1 GTP         0.0000 
     42 H8         11.8730   32.6240   17.9510 H         1 GTP         0.0000 
     43 HN1        18.1572   31.2365   16.2739 H         1 GTP         0.0000 
     44 HN21       19.5568   32.1296   17.8977 H         1 GTP         0.0000 
     45 HN22       18.8054   32.8843   19.4775 H         1 GTP         0.0000 
@<TRIPOS>BOND
     1    1    2 2    
     2    1    3 1    
     3    1    4 1    
     4    1    5 1    
     5    4   33 1    
     6    5    6 1    
     7    6    7 2    
     8    6    8 1    
     9    6    9 1    
    10    9   10 1    
    11   10   11 2    
    12   10   12 1    
    13   10   13 1    
    14   13   14 1    
    15   14   15 1    
    16   14   34 1    
    17   14   35 1    
    18   15   16 1    
    19   15   17 1    
    20   15   36 1    
    21   16   21 1    
    22   17   18 1    
    23   17   19 1    
    24   17   37 1    
    25   18   38 1    
    26   19   20 1    
    27   19   21 1    
    28   19   39 1    
    29   20   40 1    
    30   21   22 1    
    31   21   41 1    
    32   22   23 ar   
    33   22   32 ar   
    34   23   24 ar   
    35   23   42 1    
    36   24   25 ar   
    37   25   26 ar   
    38   25   32 ar   
    39   26   27 2    
    40   26   28 ar   
    41   28   29 ar   
    42   28   43 1    
    43   29   30 1    
    44   29   31 ar   
    45   30   44 1    
    46   30   45 1    
    47   31   32 ar   
@<TRIPOS>SUBSTRUCTURE
     1 GTP         1 GROUP             0       ****    0 ROOT    
@<TRIPOS>MOLECULE
GTP
46   48    1
SMALL
USER_CHARGES


@<TRIPOS>ATOM
      1 PG          4.5660   31.3910   21.6350 P.3       1 GTP         0.0000 
      2 O1G         4.6130   31.9070   23.0690 O.co2     1 GTP         0.0000 
      3 O2G         3.8920   32.3190   20.6310 O.co2     1 GTP         0.0000 
      4 O3G         4.1430   30.0120   21.6130 O.3       1 GTP         0.0000 
      5 O3B         6.1600   31.3600   21.2280 O.3       1 GTP         0.0000 
      6 PB          6.8770   31.2020   19.7450 P.3       1 GTP         0.0000 
      7 O1B         7.0790   29.7090   19.4730 O.co2     1 GTP         0.0000 
      8 O2B         6.1250   31.9700   18.7490 O.co2     1 GTP         0.0000 
      9 O3A         8.2510   31.8900   20.0030 O.3       1 GTP         0.0000 
     10 PA          8.8460   33.2610   19.4110 P.3       1 GTP         0.0000 
     11 O1A         8.8880   33.2560   17.9570 O.co2     1 GTP         0.0000 
     12 O2A         8.1050   34.3980   20.1290 O.co2     1 GTP         0.0000 
     13 O5'        10.4300   33.1530   19.9000 O.3       1 GTP         0.0000 
     14 C5'        10.5490   33.0440   21.3780 C.3       1 GTP         0.0000 
     15 C4'        12.0460   33.6180   21.4740 C.3       1 GTP         0.0000 
     16 O4'        13.0520   32.8300   20.8180 O.3       1 GTP         0.0000 
     17 C3'        12.3070   34.9690   21.0570 C.3       1 GTP         0.0000 
     18 O3'        13.1090   35.6720   21.9710 O.3       1 GTP         0.0000 
     19 C2'        12.8390   34.9710   19.5930 C.3       1 GTP         0.0000 
     20 O2'        13.6720   35.9610   19.3550 O.3       1 GTP         0.0000 
     21 C1'        13.8460   33.6220   19.9270 C.3       1 GTP         0.0000 
     22 N9         14.0010   32.8330   18.6490 N.pl3     1 GTP         0.0000 
     23 C8         12.9340   32.4520   17.8480 C.ar      1 GTP         0.0000 
     24 N7         13.6400   31.7980   16.8990 N.pl3     1 GTP         0.0000 
     25 C5         15.0290   31.8890   17.0010 C.ar      1 GTP         0.0000 
     26 C6         15.8990   31.3940   16.2380 C.ar      1 GTP         0.0000 
     27 O6         15.9820   30.6800   15.1910 O.2       1 GTP         0.0000 
     28 N1         17.2740   31.6280   16.8000 N.pl3     1 GTP         0.0000 
     29 C2         17.3040   32.2950   17.8960 C.ar      1 GTP         0.0000 
     30 N2         18.6770   32.4500   18.4750 N.pl3     1 GTP         0.0000 
     31 N3         16.3840   32.7360   18.7390 N.2       1 GTP         0.0000 
     32 C4         15.2180   32.5170   18.1350 C.ar      1 GTP         0.0000 
     33 HOG3        3.1013   29.7523   21.8527 H         1 GTP         0.0000 
     34 H5'         9.7718   33.6593   21.8548 H         1 GTP         0.0000 
     35 H5''       10.4216   31.9939   21.6797 H         1 GTP         0.0000 
     36 H4'        12.2583   33.6282   22.5533 H         1 GTP         0.0000 
     37 H3'        11.3699   35.5332   21.1732 H         1 GTP         0.0000 
     38 HO3'       12.8165   35.7279   23.0299 H         1 GTP         0.0000 
     39 H2'        12.1431   35.1631   18.7630 H         1 GTP         0.0000 
     40 HO2'       13.2830   36.9601   19.1092 H         1 GTP         0.0000 
     41 H1'        14.8453   33.7628   20.3647 H         1 GTP         0.0000 
     42 H8         11.8730   32.6240   17.9510 H         1 GTP         0.0000 
     43 HN1        18.1572   31.2365   16.2739 H         1 GTP         0.0000 
     44 HN21       19.5568   32.1296   17.8977 H         1 GTP         0.0000 
     45 HN22       18.8054   32.8843   19.4775 H         1 GTP         0.0000 
     46 H46        13.1150   31.2389   16.1105 H         1 GTP         0.0000 
@<TRIPOS>BOND
     1    1    2 2    
     2    1    3 1    
     3    1    4 1    
     4    1    5 1    
     5    4   33 1    
     6    5    6 1    
     7    6    7 2    
     8    6    8 1    
     9    6    9 1    
    10    9   10 1    
    11   10   11 2    
    12   10   12 1    
    13   10   13 1    
    14   13   14 1    
    15   14   15 1    
    16   14   34 1    
    17   14   35 1    
    18   15   16 1    
    19   15   17 1    
    20   15   36 1    
    21   16   21 1    
    22   17   18 1    
    23   17   19 1    
    24   17   37 1    
    25   18   38 1    
    26   19   20 1    
    27   19   21 1    
    28   19   39 1    
    29   20   40 1    
    30   21   22 1    
    31   21   41 1    
    32   22   23 ar   
    33   22   32 ar   
    34   23   24 ar   
    35   23   42 1    
    36   24   25 ar   
    37   24   46 1    
    38   25   26 ar   
    39   25   32 ar   
    40   26   27 2    
    41   26   28 ar   
    42   28   29 ar   
    43   28   43 1    
    44   29   30 1    
    45   29   31 ar   
    46   30   44 1    
    47   30   45 1    
    48   31   32 ar   
@<TRIPOS>SUBSTRUCTURE
     1 GTP         1 GROUP             0       ****    0 ROOT    
@<TRIPOS>MOLECULE
GTP
46   48    1
SMALL
USER_CHARGES


@<TRIPOS>ATOM
      1 PG          4.5660   31.3910   21.6350 P.3       1 GTP         0.0000 
      2 O1G         4.6130   31.9070   23.0690 O.co2     1 GTP         0.0000 
      3 O2G         3.8920   32.3190   20.6310 O.co2     1 GTP         0.0000 
      4 O3G         4.1430   30.0120   21.6130 O.3       1 GTP         0.0000 
      5 O3B         6.1600   31.3600   21.2280 O.3       1 GTP         0.0000 
      6 PB          6.8770   31.2020   19.7450 P.3       1 GTP         0.0000 
      7 O1B         7.0790   29.7090   19.4730 O.2       1 GTP         0.0000 
      8 O2B         6.1250   31.9700   18.7490 O.3       1 GTP         0.0000 
      9 O3A         8.2510   31.8900   20.0030 O.3       1 GTP         0.0000 
     10 PA          8.8460   33.2610   19.4110 P.3       1 GTP         0.0000 
     11 O1A         8.8880   33.2560   17.9570 O.co2     1 GTP         0.0000 
     12 O2A         8.1050   34.3980   20.1290 O.co2     1 GTP         0.0000 
     13 O5'        10.4300   33.1530   19.9000 O.3       1 GTP         0.0000 
     14 C5'        10.5490   33.0440   21.3780 C.3       1 GTP         0.0000 
     15 C4'        12.0460   33.6180   21.4740 C.3       1 GTP         0.0000 
     16 O4'        13.0520   32.8300   20.8180 O.3       1 GTP         0.0000 
     17 C3'        12.3070   34.9690   21.0570 C.3       1 GTP         0.0000 
     18 O3'        13.1090   35.6720   21.9710 O.3       1 GTP         0.0000 
     19 C2'        12.8390   34.9710   19.5930 C.3       1 GTP         0.0000 
     20 O2'        13.6720   35.9610   19.3550 O.3       1 GTP         0.0000 
     21 C1'        13.8460   33.6220   19.9270 C.3       1 GTP         0.0000 
     22 N9         14.0010   32.8330   18.6490 N.pl3     1 GTP         0.0000 
     23 C8         12.9340   32.4520   17.8480 C.ar      1 GTP         0.0000 
     24 N7         13.6400   31.7980   16.8990 N.2       1 GTP         0.0000 
     25 C5         15.0290   31.8890   17.0010 C.ar      1 GTP         0.0000 
     26 C6         15.8990   31.3940   16.2380 C.ar      1 GTP         0.0000 
     27 O6         15.9820   30.6800   15.1910 O.2       1 GTP         0.0000 
     28 N1         17.2740   31.6280   16.8000 N.pl3     1 GTP         0.0000 
     29 C2         17.3040   32.2950   17.8960 C.ar      1 GTP         0.0000 
     30 N2         18.6770   32.4500   18.4750 N.pl3     1 GTP         0.0000 
     31 N3         16.3840   32.7360   18.7390 N.2       1 GTP         0.0000 
     32 C4         15.2180   32.5170   18.1350 C.ar      1 GTP         0.0000 
     33 HOG3        3.1013   29.7523   21.8527 H         1 GTP         0.0000 
     34 HOB2        5.1247   31.6353   18.4370 H         1 GTP         0.0000 
     35 H5'         9.7718   33.6593   21.8548 H         1 GTP         0.0000 
     36 H5''       10.4216   31.9939   21.6797 H         1 GTP         0.0000 
     37 H4'        12.2583   33.6282   22.5533 H         1 GTP         0.0000 
     38 H3'        11.3699   35.5332   21.1732 H         1 GTP         0.0000 
     39 HO3'       12.8165   35.7279   23.0299 H         1 GTP         0.0000 
     40 H2'        12.1431   35.1631   18.7630 H         1 GTP         0.0000 
     41 HO2'       13.2830   36.9601   19.1092 H         1 GTP         0.0000 
     42 H1'        14.8453   33.7628   20.3647 H         1 GTP         0.0000 
     43 H8         11.8730   32.6240   17.9510 H         1 GTP         0.0000 
     44 HN1        18.1572   31.2365   16.2739 H         1 GTP         0.0000 
     45 HN21       19.5568   32.1296   17.8977 H         1 GTP         0.0000 
     46 HN22       18.8054   32.8843   19.4775 H         1 GTP         0.0000 
@<TRIPOS>BOND
     1    1    2 2    
     2    1    3 1    
     3    1    4 1    
     4    1    5 1    
     5    4   33 1    
     6    5    6 1    
     7    6    7 2    
     8    6    8 1    
     9    6    9 1    
    10    8   34 1    
    11    9   10 1    
    12   10   11 2    
    13   10   12 1    
    14   10   13 1    
    15   13   14 1    
    16   14   15 1    
    17   14   35 1    
    18   14   36 1    
    19   15   16 1    
    20   15   17 1    
    21   15   37 1    
    22   16   21 1    
    23   17   18 1    
    24   17   19 1    
    25   17   38 1    
    26   18   39 1    
    27   19   20 1    
    28   19   21 1    
    29   19   40 1    
    30   20   41 1    
    31   21   22 1    
    32   21   42 1    
    33   22   23 ar   
    34   22   32 ar   
    35   23   24 ar   
    36   23   43 1    
    37   24   25 ar   
    38   25   26 ar   
    39   25   32 ar   
    40   26   27 2    
    41   26   28 ar   
    42   28   29 ar   
    43   28   44 1    
    44   29   30 1    
    45   29   31 ar   
    46   30   45 1    
    47   30   46 1    
    48   31   32 ar   
@<TRIPOS>SUBSTRUCTURE
     1 GTP         1 GROUP             0       ****    0 ROOT    
@<TRIPOS>MOLECULE
GTP
46   48    1
SMALL
USER_CHARGES


@<TRIPOS>ATOM
      1 PG          4.5660   31.3910   21.6350 P.3       1 GTP         0.0000 
      2 O1G         4.6130   31.9070   23.0690 O.co2     1 GTP         0.0000 
      3 O2G         3.8920   32.3190   20.6310 O.co2     1 GTP         0.0000 
      4 O3G         4.1430   30.0120   21.6130 O.3       1 GTP         0.0000 
      5 O3B         6.1600   31.3600   21.2280 O.3       1 GTP         0.0000 
      6 PB          6.8770   31.2020   19.7450 P.3       1 GTP         0.0000 
      7 O1B         7.0790   29.7090   19.4730 O.co2     1 GTP         0.0000 
      8 O2B         6.1250   31.9700   18.7490 O.co2     1 GTP         0.0000 
      9 O3A         8.2510   31.8900   20.0030 O.3       1 GTP         0.0000 
     10 PA          8.8460   33.2610   19.4110 P.3       1 GTP         0.0000 
     11 O1A         8.8880   33.2560   17.9570 O.2       1 GTP         0.0000 
     12 O2A         8.1050   34.3980   20.1290 O.3       1 GTP         0.0000 
     13 O5'        10.4300   33.1530   19.9000 O.3       1 GTP         0.0000 
     14 C5'        10.5490   33.0440   21.3780 C.3       1 GTP         0.0000 
     15 C4'        12.0460   33.6180   21.4740 C.3       1 GTP         0.0000 
     16 O4'        13.0520   32.8300   20.8180 O.3       1 GTP         0.0000 
     17 C3'        12.3070   34.9690   21.0570 C.3       1 GTP         0.0000 
     18 O3'        13.1090   35.6720   21.9710 O.3       1 GTP         0.0000 
     19 C2'        12.8390   34.9710   19.5930 C.3       1 GTP         0.0000 
     20 O2'        13.6720   35.9610   19.3550 O.3       1 GTP         0.0000 
     21 C1'        13.8460   33.6220   19.9270 C.3       1 GTP         0.0000 
     22 N9         14.0010   32.8330   18.6490 N.pl3     1 GTP         0.0000 
     23 C8         12.9340   32.4520   17.8480 C.ar      1 GTP         0.0000 
     24 N7         13.6400   31.7980   16.8990 N.2       1 GTP         0.0000 
     25 C5         15.0290   31.8890   17.0010 C.ar      1 GTP         0.0000 
     26 C6         15.8990   31.3940   16.2380 C.ar      1 GTP         0.0000 
     27 O6         15.9820   30.6800   15.1910 O.2       1 GTP         0.0000 
     28 N1         17.2740   31.6280   16.8000 N.pl3     1 GTP         0.0000 
     29 C2         17.3040   32.2950   17.8960 C.ar      1 GTP         0.0000 
     30 N2         18.6770   32.4500   18.4750 N.pl3     1 GTP         0.0000 
     31 N3         16.3840   32.7360   18.7390 N.2       1 GTP         0.0000 
     32 C4         15.2180   32.5170   18.1350 C.ar      1 GTP         0.0000 
     33 HOG3        3.1013   29.7523   21.8527 H         1 GTP         0.0000 
     34 HOA2        7.0451   34.5904   19.9065 H         1 GTP         0.0000 
     35 H5'         9.7718   33.6593   21.8548 H         1 GTP         0.0000 
     36 H5''       10.4216   31.9939   21.6797 H         1 GTP         0.0000 
     37 H4'        12.2583   33.6282   22.5533 H         1 GTP         0.0000 
     38 H3'        11.3699   35.5332   21.1732 H         1 GTP         0.0000 
     39 HO3'       12.8165   35.7279   23.0299 H         1 GTP         0.0000 
     40 H2'        12.1431   35.1631   18.7630 H         1 GTP         0.0000 
     41 HO2'       13.2830   36.9601   19.1092 H         1 GTP         0.0000 
     42 H1'        14.8453   33.7628   20.3647 H         1 GTP         0.0000 
     43 H8         11.8730   32.6240   17.9510 H         1 GTP         0.0000 
     44 HN1        18.1572   31.2365   16.2739 H         1 GTP         0.0000 
     45 HN21       19.5568   32.1296   17.8977 H         1 GTP         0.0000 
     46 HN22       18.8054   32.8843   19.4775 H         1 GTP         0.0000 
@<TRIPOS>BOND
     1    1    2 2    
     2    1    3 1    
     3    1    4 1    
     4    1    5 1    
     5    4   33 1    
     6    5    6 1    
     7    6    7 2    
     8    6    8 1    
     9    6    9 1    
    10    9   10 1    
    11   10   11 2    
    12   10   12 1    
    13   10   13 1    
    14   12   34 1    
    15   13   14 1    
    16   14   15 1    
    17   14   35 1    
    18   14   36 1    
    19   15   16 1    
    20   15   17 1    
    21   15   37 1    
    22   16   21 1    
    23   17   18 1    
    24   17   19 1    
    25   17   38 1    
    26   18   39 1    
    27   19   20 1    
    28   19   21 1    
    29   19   40 1    
    30   20   41 1    
    31   21   22 1    
    32   21   42 1    
    33   22   23 ar   
    34   22   32 ar   
    35   23   24 ar   
    36   23   43 1    
    37   24   25 ar   
    38   25   26 ar   
    39   25   32 ar   
    40   26   27 2    
    41   26   28 ar   
    42   28   29 ar   
    43   28   44 1    
    44   29   30 1    
    45   29   31 ar   
    46   30   45 1    
    47   30   46 1    
    48   31   32 ar   
@<TRIPOS>SUBSTRUCTURE
     1 GTP         1 GROUP             0       ****    0 ROOT    
@<TRIPOS>MOLECULE
GTP
47   49    1
SMALL
USER_CHARGES


@<TRIPOS>ATOM
      1 PG          4.5660   31.3910   21.6350 P.3       1 GTP         0.0000 
      2 O1G         4.6130   31.9070   23.0690 O.co2     1 GTP         0.0000 
      3 O2G         3.8920   32.3190   20.6310 O.co2     1 GTP         0.0000 
      4 O3G         4.1430   30.0120   21.6130 O.3       1 GTP         0.0000 
      5 O3B         6.1600   31.3600   21.2280 O.3       1 GTP         0.0000 
      6 PB          6.8770   31.2020   19.7450 P.3       1 GTP         0.0000 
      7 O1B         7.0790   29.7090   19.4730 O.co2     1 GTP         0.0000 
      8 O2B         6.1250   31.9700   18.7490 O.co2     1 GTP         0.0000 
      9 O3A         8.2510   31.8900   20.0030 O.3       1 GTP         0.0000 
     10 PA          8.8460   33.2610   19.4110 P.3       1 GTP         0.0000 
     11 O1A         8.8880   33.2560   17.9570 O.2       1 GTP         0.0000 
     12 O2A         8.1050   34.3980   20.1290 O.3       1 GTP         0.0000 
     13 O5'        10.4300   33.1530   19.9000 O.3       1 GTP         0.0000 
     14 C5'        10.5490   33.0440   21.3780 C.3       1 GTP         0.0000 
     15 C4'        12.0460   33.6180   21.4740 C.3       1 GTP         0.0000 
     16 O4'        13.0520   32.8300   20.8180 O.3       1 GTP         0.0000 
     17 C3'        12.3070   34.9690   21.0570 C.3       1 GTP         0.0000 
     18 O3'        13.1090   35.6720   21.9710 O.3       1 GTP         0.0000 
     19 C2'        12.8390   34.9710   19.5930 C.3       1 GTP         0.0000 
     20 O2'        13.6720   35.9610   19.3550 O.3       1 GTP         0.0000 
     21 C1'        13.8460   33.6220   19.9270 C.3       1 GTP         0.0000 
     22 N9         14.0010   32.8330   18.6490 N.pl3     1 GTP         0.0000 
     23 C8         12.9340   32.4520   17.8480 C.ar      1 GTP         0.0000 
     24 N7         13.6400   31.7980   16.8990 N.pl3     1 GTP         0.0000 
     25 C5         15.0290   31.8890   17.0010 C.ar      1 GTP         0.0000 
     26 C6         15.8990   31.3940   16.2380 C.ar      1 GTP         0.0000 
     27 O6         15.9820   30.6800   15.1910 O.2       1 GTP         0.0000 
     28 N1         17.2740   31.6280   16.8000 N.pl3     1 GTP         0.0000 
     29 C2         17.3040   32.2950   17.8960 C.ar      1 GTP         0.0000 
     30 N2         18.6770   32.4500   18.4750 N.pl3     1 GTP         0.0000 
     31 N3         16.3840   32.7360   18.7390 N.2       1 GTP         0.0000 
     32 C4         15.2180   32.5170   18.1350 C.ar      1 GTP         0.0000 
     33 HOG3        3.1013   29.7523   21.8527 H         1 GTP         0.0000 
     34 HOA2        7.0451   34.5904   19.9065 H         1 GTP         0.0000 
     35 H5'         9.7718   33.6593   21.8548 H         1 GTP         0.0000 
     36 H5''       10.4216   31.9939   21.6797 H         1 GTP         0.0000 
     37 H4'        12.2583   33.6282   22.5533 H         1 GTP         0.0000 
     38 H3'        11.3699   35.5332   21.1732 H         1 GTP         0.0000 
     39 HO3'       12.8165   35.7279   23.0299 H         1 GTP         0.0000 
     40 H2'        12.1431   35.1631   18.7630 H         1 GTP         0.0000 
     41 HO2'       13.2830   36.9601   19.1092 H         1 GTP         0.0000 
     42 H1'        14.8453   33.7628   20.3647 H         1 GTP         0.0000 
     43 H8         11.8730   32.6240   17.9510 H         1 GTP         0.0000 
     44 HN1        18.1572   31.2365   16.2739 H         1 GTP         0.0000 
     45 HN21       19.5568   32.1296   17.8977 H         1 GTP         0.0000 
     46 HN22       18.8054   32.8843   19.4775 H         1 GTP         0.0000 
     47 H47        13.1150   31.2389   16.1105 H         1 GTP         0.0000 
@<TRIPOS>BOND
     1    1    2 2    
     2    1    3 1    
     3    1    4 1    
     4    1    5 1    
     5    4   33 1    
     6    5    6 1    
     7    6    7 2    
     8    6    8 1    
     9    6    9 1    
    10    9   10 1    
    11   10   11 2    
    12   10   12 1    
    13   10   13 1    
    14   12   34 1    
    15   13   14 1    
    16   14   15 1    
    17   14   35 1    
    18   14   36 1    
    19   15   16 1    
    20   15   17 1    
    21   15   37 1    
    22   16   21 1    
    23   17   18 1    
    24   17   19 1    
    25   17   38 1    
    26   18   39 1    
    27   19   20 1    
    28   19   21 1    
    29   19   40 1    
    30   20   41 1    
    31   21   22 1    
    32   21   42 1    
    33   22   23 ar   
    34   22   32 ar   
    35   23   24 ar   
    36   23   43 1    
    37   24   25 ar   
    38   24   47 1    
    39   25   26 ar   
    40   25   32 ar   
    41   26   27 2    
    42   26   28 ar   
    43   28   29 ar   
    44   28   44 1    
    45   29   30 1    
    46   29   31 ar   
    47   30   45 1    
    48   30   46 1    
    49   31   32 ar   
@<TRIPOS>SUBSTRUCTURE
     1 GTP         1 GROUP             0       ****    0 ROOT    
@<TRIPOS>MOLECULE
GTP
46   48    1
SMALL
USER_CHARGES


@<TRIPOS>ATOM
      1 PG          4.5660   31.3910   21.6350 P.3       1 GTP         0.0000 
      2 O1G         4.6130   31.9070   23.0690 O.2       1 GTP         0.0000 
      3 O2G         3.8920   32.3190   20.6310 O.3       1 GTP         0.0000 
      4 O3G         4.1430   30.0120   21.6130 O.3       1 GTP         0.0000 
      5 O3B         6.1600   31.3600   21.2280 O.3       1 GTP         0.0000 
      6 PB          6.8770   31.2020   19.7450 P.3       1 GTP         0.0000 
      7 O1B         7.0790   29.7090   19.4730 O.co2     1 GTP         0.0000 
      8 O2B         6.1250   31.9700   18.7490 O.co2     1 GTP         0.0000 
      9 O3A         8.2510   31.8900   20.0030 O.3       1 GTP         0.0000 
     10 PA          8.8460   33.2610   19.4110 P.3       1 GTP         0.0000 
     11 O1A         8.8880   33.2560   17.9570 O.co2     1 GTP         0.0000 
     12 O2A         8.1050   34.3980   20.1290 O.co2     1 GTP         0.0000 
     13 O5'        10.4300   33.1530   19.9000 O.3       1 GTP         0.0000 
     14 C5'        10.5490   33.0440   21.3780 C.3       1 GTP         0.0000 
     15 C4'        12.0460   33.6180   21.4740 C.3       1 GTP         0.0000 
     16 O4'        13.0520   32.8300   20.8180 O.3       1 GTP         0.0000 
     17 C3'        12.3070   34.9690   21.0570 C.3       1 GTP         0.0000 
     18 O3'        13.1090   35.6720   21.9710 O.3       1 GTP         0.0000 
     19 C2'        12.8390   34.9710   19.5930 C.3       1 GTP         0.0000 
     20 O2'        13.6720   35.9610   19.3550 O.3       1 GTP         0.0000 
     21 C1'        13.8460   33.6220   19.9270 C.3       1 GTP         0.0000 
     22 N9         14.0010   32.8330   18.6490 N.pl3     1 GTP         0.0000 
     23 C8         12.9340   32.4520   17.8480 C.ar      1 GTP         0.0000 
     24 N7         13.6400   31.7980   16.8990 N.2       1 GTP         0.0000 
     25 C5         15.0290   31.8890   17.0010 C.ar      1 GTP         0.0000 
     26 C6         15.8990   31.3940   16.2380 C.ar      1 GTP         0.0000 
     27 O6         15.9820   30.6800   15.1910 O.2       1 GTP         0.0000 
     28 N1         17.2740   31.6280   16.8000 N.pl3     1 GTP         0.0000 
     29 C2         17.3040   32.2950   17.8960 C.ar      1 GTP         0.0000 
     30 N2         18.6770   32.4500   18.4750 N.pl3     1 GTP         0.0000 
     31 N3         16.3840   32.7360   18.7390 N.2       1 GTP         0.0000 
     32 C4         15.2180   32.5170   18.1350 C.ar      1 GTP         0.0000 
     33 HOG2        2.8098   32.5054   20.6948 H         1 GTP         0.0000 
     34 HOG3        3.1013   29.7523   21.8527 H         1 GTP         0.0000 
     35 H5'         9.7718   33.6593   21.8548 H         1 GTP         0.0000 
     36 H5''       10.4216   31.9939   21.6797 H         1 GTP         0.0000 
     37 H4'        12.2583   33.6282   22.5533 H         1 GTP         0.0000 
     38 H3'        11.3699   35.5332   21.1732 H         1 GTP         0.0000 
     39 HO3'       12.8165   35.7279   23.0299 H         1 GTP         0.0000 
     40 H2'        12.1431   35.1631   18.7630 H         1 GTP         0.0000 
     41 HO2'       13.2830   36.9601   19.1092 H         1 GTP         0.0000 
     42 H1'        14.8453   33.7628   20.3647 H         1 GTP         0.0000 
     43 H8         11.8730   32.6240   17.9510 H         1 GTP         0.0000 
     44 HN1        18.1572   31.2365   16.2739 H         1 GTP         0.0000 
     45 HN21       19.5568   32.1296   17.8977 H         1 GTP         0.0000 
     46 HN22       18.8054   32.8843   19.4775 H         1 GTP         0.0000 
@<TRIPOS>BOND
     1    1    2 2    
     2    1    3 1    
     3    1    4 1    
     4    1    5 1    
     5    3   33 1    
     6    4   34 1    
     7    5    6 1    
     8    6    7 2    
     9    6    8 1    
    10    6    9 1    
    11    9   10 1    
    12   10   11 2    
    13   10   12 1    
    14   10   13 1    
    15   13   14 1    
    16   14   15 1    
    17   14   35 1    
    18   14   36 1    
    19   15   16 1    
    20   15   17 1    
    21   15   37 1    
    22   16   21 1    
    23   17   18 1    
    24   17   19 1    
    25   17   38 1    
    26   18   39 1    
    27   19   20 1    
    28   19   21 1    
    29   19   40 1    
    30   20   41 1    
    31   21   22 1    
    32   21   42 1    
    33   22   23 ar   
    34   22   32 ar   
    35   23   24 ar   
    36   23   43 1    
    37   24   25 ar   
    38   25   26 ar   
    39   25   32 ar   
    40   26   27 2    
    41   26   28 ar   
    42   28   29 ar   
    43   28   44 1    
    44   29   30 1    
    45   29   31 ar   
    46   30   45 1    
    47   30   46 1    
    48   31   32 ar   
@<TRIPOS>SUBSTRUCTURE
     1 GTP         1 GROUP             0       ****    0 ROOT    
@<TRIPOS>MOLECULE
GTP
47   49    1
SMALL
USER_CHARGES


@<TRIPOS>ATOM
      1 PG          4.5660   31.3910   21.6350 P.3       1 GTP         0.0000 
      2 O1G         4.6130   31.9070   23.0690 O.2       1 GTP         0.0000 
      3 O2G         3.8920   32.3190   20.6310 O.3       1 GTP         0.0000 
      4 O3G         4.1430   30.0120   21.6130 O.3       1 GTP         0.0000 
      5 O3B         6.1600   31.3600   21.2280 O.3       1 GTP         0.0000 
      6 PB          6.8770   31.2020   19.7450 P.3       1 GTP         0.0000 
      7 O1B         7.0790   29.7090   19.4730 O.co2     1 GTP         0.0000 
      8 O2B         6.1250   31.9700   18.7490 O.co2     1 GTP         0.0000 
      9 O3A         8.2510   31.8900   20.0030 O.3       1 GTP         0.0000 
     10 PA          8.8460   33.2610   19.4110 P.3       1 GTP         0.0000 
     11 O1A         8.8880   33.2560   17.9570 O.co2     1 GTP         0.0000 
     12 O2A         8.1050   34.3980   20.1290 O.co2     1 GTP         0.0000 
     13 O5'        10.4300   33.1530   19.9000 O.3       1 GTP         0.0000 
     14 C5'        10.5490   33.0440   21.3780 C.3       1 GTP         0.0000 
     15 C4'        12.0460   33.6180   21.4740 C.3       1 GTP         0.0000 
     16 O4'        13.0520   32.8300   20.8180 O.3       1 GTP         0.0000 
     17 C3'        12.3070   34.9690   21.0570 C.3       1 GTP         0.0000 
     18 O3'        13.1090   35.6720   21.9710 O.3       1 GTP         0.0000 
     19 C2'        12.8390   34.9710   19.5930 C.3       1 GTP         0.0000 
     20 O2'        13.6720   35.9610   19.3550 O.3       1 GTP         0.0000 
     21 C1'        13.8460   33.6220   19.9270 C.3       1 GTP         0.0000 
     22 N9         14.0010   32.8330   18.6490 N.pl3     1 GTP         0.0000 
     23 C8         12.9340   32.4520   17.8480 C.ar      1 GTP         0.0000 
     24 N7         13.6400   31.7980   16.8990 N.pl3     1 GTP         0.0000 
     25 C5         15.0290   31.8890   17.0010 C.ar      1 GTP         0.0000 
     26 C6         15.8990   31.3940   16.2380 C.ar      1 GTP         0.0000 
     27 O6         15.9820   30.6800   15.1910 O.2       1 GTP         0.0000 
     28 N1         17.2740   31.6280   16.8000 N.pl3     1 GTP         0.0000 
     29 C2         17.3040   32.2950   17.8960 C.ar      1 GTP         0.0000 
     30 N2         18.6770   32.4500   18.4750 N.pl3     1 GTP         0.0000 
     31 N3         16.3840   32.7360   18.7390 N.2       1 GTP         0.0000 
     32 C4         15.2180   32.5170   18.1350 C.ar      1 GTP         0.0000 
     33 HOG2        2.8098   32.5054   20.6948 H         1 GTP         0.0000 
     34 HOG3        3.1013   29.7523   21.8527 H         1 GTP         0.0000 
     35 H5'         9.7718   33.6593   21.8548 H         1 GTP         0.0000 
     36 H5''       10.4216   31.9939   21.6797 H         1 GTP         0.0000 
     37 H4'        12.2583   33.6282   22.5533 H         1 GTP         0.0000 
     38 H3'        11.3699   35.5332   21.1732 H         1 GTP         0.0000 
     39 HO3'       12.8165   35.7279   23.0299 H         1 GTP         0.0000 
     40 H2'        12.1431   35.1631   18.7630 H         1 GTP         0.0000 
     41 HO2'       13.2830   36.9601   19.1092 H         1 GTP         0.0000 
     42 H1'        14.8453   33.7628   20.3647 H         1 GTP         0.0000 
     43 H8         11.8730   32.6240   17.9510 H         1 GTP         0.0000 
     44 HN1        18.1572   31.2365   16.2739 H         1 GTP         0.0000 
     45 HN21       19.5568   32.1296   17.8977 H         1 GTP         0.0000 
     46 HN22       18.8054   32.8843   19.4775 H         1 GTP         0.0000 
     47 H47        13.1150   31.2389   16.1105 H         1 GTP         0.0000 
@<TRIPOS>BOND
     1    1    2 2    
     2    1    3 1    
     3    1    4 1    
     4    1    5 1    
     5    3   33 1    
     6    4   34 1    
     7    5    6 1    
     8    6    7 2    
     9    6    8 1    
    10    6    9 1    
    11    9   10 1    
    12   10   11 2    
    13   10   12 1    
    14   10   13 1    
    15   13   14 1    
    16   14   15 1    
    17   14   35 1    
    18   14   36 1    
    19   15   16 1    
    20   15   17 1    
    21   15   37 1    
    22   16   21 1    
    23   17   18 1    
    24   17   19 1    
    25   17   38 1    
    26   18   39 1    
    27   19   20 1    
    28   19   21 1    
    29   19   40 1    
    30   20   41 1    
    31   21   22 1    
    32   21   42 1    
    33   22   23 ar   
    34   22   32 ar   
    35   23   24 ar   
    36   23   43 1    
    37   24   25 ar   
    38   24   47 1    
    39   25   26 ar   
    40   25   32 ar   
    41   26   27 2    
    42   26   28 ar   
    43   28   29 ar   
    44   28   44 1    
    45   29   30 1    
    46   29   31 ar   
    47   30   45 1    
    48   30   46 1    
    49   31   32 ar   
@<TRIPOS>SUBSTRUCTURE
     1 GTP         1 GROUP             0       ****    0 ROOT    
@<TRIPOS>MOLECULE
GTP
47   49    1
SMALL
USER_CHARGES


@<TRIPOS>ATOM
      1 PG          4.5660   31.3910   21.6350 P.3       1 GTP         0.0000 
      2 O1G         4.6130   31.9070   23.0690 O.co2     1 GTP         0.0000 
      3 O2G         3.8920   32.3190   20.6310 O.co2     1 GTP         0.0000 
      4 O3G         4.1430   30.0120   21.6130 O.3       1 GTP         0.0000 
      5 O3B         6.1600   31.3600   21.2280 O.3       1 GTP         0.0000 
      6 PB          6.8770   31.2020   19.7450 P.3       1 GTP         0.0000 
      7 O1B         7.0790   29.7090   19.4730 O.2       1 GTP         0.0000 
      8 O2B         6.1250   31.9700   18.7490 O.3       1 GTP         0.0000 
      9 O3A         8.2510   31.8900   20.0030 O.3       1 GTP         0.0000 
     10 PA          8.8460   33.2610   19.4110 P.3       1 GTP         0.0000 
     11 O1A         8.8880   33.2560   17.9570 O.co2     1 GTP         0.0000 
     12 O2A         8.1050   34.3980   20.1290 O.co2     1 GTP         0.0000 
     13 O5'        10.4300   33.1530   19.9000 O.3       1 GTP         0.0000 
     14 C5'        10.5490   33.0440   21.3780 C.3       1 GTP         0.0000 
     15 C4'        12.0460   33.6180   21.4740 C.3       1 GTP         0.0000 
     16 O4'        13.0520   32.8300   20.8180 O.3       1 GTP         0.0000 
     17 C3'        12.3070   34.9690   21.0570 C.3       1 GTP         0.0000 
     18 O3'        13.1090   35.6720   21.9710 O.3       1 GTP         0.0000 
     19 C2'        12.8390   34.9710   19.5930 C.3       1 GTP         0.0000 
     20 O2'        13.6720   35.9610   19.3550 O.3       1 GTP         0.0000 
     21 C1'        13.8460   33.6220   19.9270 C.3       1 GTP         0.0000 
     22 N9         14.0010   32.8330   18.6490 N.pl3     1 GTP         0.0000 
     23 C8         12.9340   32.4520   17.8480 C.ar      1 GTP         0.0000 
     24 N7         13.6400   31.7980   16.8990 N.pl3     1 GTP         0.0000 
     25 C5         15.0290   31.8890   17.0010 C.ar      1 GTP         0.0000 
     26 C6         15.8990   31.3940   16.2380 C.ar      1 GTP         0.0000 
     27 O6         15.9820   30.6800   15.1910 O.2       1 GTP         0.0000 
     28 N1         17.2740   31.6280   16.8000 N.pl3     1 GTP         0.0000 
     29 C2         17.3040   32.2950   17.8960 C.ar      1 GTP         0.0000 
     30 N2         18.6770   32.4500   18.4750 N.pl3     1 GTP         0.0000 
     31 N3         16.3840   32.7360   18.7390 N.2       1 GTP         0.0000 
     32 C4         15.2180   32.5170   18.1350 C.ar      1 GTP         0.0000 
     33 HOG3        3.1013   29.7523   21.8527 H         1 GTP         0.0000 
     34 HOB2        5.1247   31.6353   18.4370 H         1 GTP         0.0000 
     35 H5'         9.7718   33.6593   21.8548 H         1 GTP         0.0000 
     36 H5''       10.4216   31.9939   21.6797 H         1 GTP         0.0000 
     37 H4'        12.2583   33.6282   22.5533 H         1 GTP         0.0000 
     38 H3'        11.3699   35.5332   21.1732 H         1 GTP         0.0000 
     39 HO3'       12.8165   35.7279   23.0299 H         1 GTP         0.0000 
     40 H2'        12.1431   35.1631   18.7630 H         1 GTP         0.0000 
     41 HO2'       13.2830   36.9601   19.1092 H         1 GTP         0.0000 
     42 H1'        14.8453   33.7628   20.3647 H         1 GTP         0.0000 
     43 H8         11.8730   32.6240   17.9510 H         1 GTP         0.0000 
     44 HN1        18.1572   31.2365   16.2739 H         1 GTP         0.0000 
     45 HN21       19.5568   32.1296   17.8977 H         1 GTP         0.0000 
     46 HN22       18.8054   32.8843   19.4775 H         1 GTP         0.0000 
     47 H47        13.1150   31.2389   16.1105 H         1 GTP         0.0000 
@<TRIPOS>BOND
     1    1    2 2    
     2    1    3 1    
     3    1    4 1    
     4    1    5 1    
     5    4   33 1    
     6    5    6 1    
     7    6    7 2    
     8    6    8 1    
     9    6    9 1    
    10    8   34 1    
    11    9   10 1    
    12   10   11 2    
    13   10   12 1    
    14   10   13 1    
    15   13   14 1    
    16   14   15 1    
    17   14   35 1    
    18   14   36 1    
    19   15   16 1    
    20   15   17 1    
    21   15   37 1    
    22   16   21 1    
    23   17   18 1    
    24   17   19 1    
    25   17   38 1    
    26   18   39 1    
    27   19   20 1    
    28   19   21 1    
    29   19   40 1    
    30   20   41 1    
    31   21   22 1    
    32   21   42 1    
    33   22   23 ar   
    34   22   32 ar   
    35   23   24 ar   
    36   23   43 1    
    37   24   25 ar   
    38   24   47 1    
    39   25   26 ar   
    40   25   32 ar   
    41   26   27 2    
    42   26   28 ar   
    43   28   29 ar   
    44   28   44 1    
    45   29   30 1    
    46   29   31 ar   
    47   30   45 1    
    48   30   46 1    
    49   31   32 ar   
@<TRIPOS>SUBSTRUCTURE
     1 GTP         1 GROUP             0       ****    0 ROOT    
@<TRIPOS>MOLECULE
GTP
47   49    1
SMALL
USER_CHARGES


@<TRIPOS>ATOM
      1 PG          4.5660   31.3910   21.6350 P.3       1 GTP         0.0000 
      2 O1G         4.6130   31.9070   23.0690 O.2       1 GTP         0.0000 
      3 O2G         3.8920   32.3190   20.6310 O.3       1 GTP         0.0000 
      4 O3G         4.1430   30.0120   21.6130 O.3       1 GTP         0.0000 
      5 O3B         6.1600   31.3600   21.2280 O.3       1 GTP         0.0000 
      6 PB          6.8770   31.2020   19.7450 P.3       1 GTP         0.0000 
      7 O1B         7.0790   29.7090   19.4730 O.co2     1 GTP         0.0000 
      8 O2B         6.1250   31.9700   18.7490 O.co2     1 GTP         0.0000 
      9 O3A         8.2510   31.8900   20.0030 O.3       1 GTP         0.0000 
     10 PA          8.8460   33.2610   19.4110 P.3       1 GTP         0.0000 
     11 O1A         8.8880   33.2560   17.9570 O.2       1 GTP         0.0000 
     12 O2A         8.1050   34.3980   20.1290 O.3       1 GTP         0.0000 
     13 O5'        10.4300   33.1530   19.9000 O.3       1 GTP         0.0000 
     14 C5'        10.5490   33.0440   21.3780 C.3       1 GTP         0.0000 
     15 C4'        12.0460   33.6180   21.4740 C.3       1 GTP         0.0000 
     16 O4'        13.0520   32.8300   20.8180 O.3       1 GTP         0.0000 
     17 C3'        12.3070   34.9690   21.0570 C.3       1 GTP         0.0000 
     18 O3'        13.1090   35.6720   21.9710 O.3       1 GTP         0.0000 
     19 C2'        12.8390   34.9710   19.5930 C.3       1 GTP         0.0000 
     20 O2'        13.6720   35.9610   19.3550 O.3       1 GTP         0.0000 
     21 C1'        13.8460   33.6220   19.9270 C.3       1 GTP         0.0000 
     22 N9         14.0010   32.8330   18.6490 N.pl3     1 GTP         0.0000 
     23 C8         12.9340   32.4520   17.8480 C.ar      1 GTP         0.0000 
     24 N7         13.6400   31.7980   16.8990 N.2       1 GTP         0.0000 
     25 C5         15.0290   31.8890   17.0010 C.ar      1 GTP         0.0000 
     26 C6         15.8990   31.3940   16.2380 C.ar      1 GTP         0.0000 
     27 O6         15.9820   30.6800   15.1910 O.2       1 GTP         0.0000 
     28 N1         17.2740   31.6280   16.8000 N.pl3     1 GTP         0.0000 
     29 C2         17.3040   32.2950   17.8960 C.ar      1 GTP         0.0000 
     30 N2         18.6770   32.4500   18.4750 N.pl3     1 GTP         0.0000 
     31 N3         16.3840   32.7360   18.7390 N.2       1 GTP         0.0000 
     32 C4         15.2180   32.5170   18.1350 C.ar      1 GTP         0.0000 
     33 HOG2        2.8098   32.5054   20.6948 H         1 GTP         0.0000 
     34 HOG3        3.1013   29.7523   21.8527 H         1 GTP         0.0000 
     35 HOA2        7.0451   34.5904   19.9065 H         1 GTP         0.0000 
     36 H5'         9.7718   33.6593   21.8548 H         1 GTP         0.0000 
     37 H5''       10.4216   31.9939   21.6797 H         1 GTP         0.0000 
     38 H4'        12.2583   33.6282   22.5533 H         1 GTP         0.0000 
     39 H3'        11.3699   35.5332   21.1732 H         1 GTP         0.0000 
     40 HO3'       12.8165   35.7279   23.0299 H         1 GTP         0.0000 
     41 H2'        12.1431   35.1631   18.7630 H         1 GTP         0.0000 
     42 HO2'       13.2830   36.9601   19.1092 H         1 GTP         0.0000 
     43 H1'        14.8453   33.7628   20.3647 H         1 GTP         0.0000 
     44 H8         11.8730   32.6240   17.9510 H         1 GTP         0.0000 
     45 HN1        18.1572   31.2365   16.2739 H         1 GTP         0.0000 
     46 HN21       19.5568   32.1296   17.8977 H         1 GTP         0.0000 
     47 HN22       18.8054   32.8843   19.4775 H         1 GTP         0.0000 
@<TRIPOS>BOND
     1    1    2 2    
     2    1    3 1    
     3    1    4 1    
     4    1    5 1    
     5    3   33 1    
     6    4   34 1    
     7    5    6 1    
     8    6    7 2    
     9    6    8 1    
    10    6    9 1    
    11    9   10 1    
    12   10   11 2    
    13   10   12 1    
    14   10   13 1    
    15   12   35 1    
    16   13   14 1    
    17   14   15 1    
    18   14   36 1    
    19   14   37 1    
    20   15   16 1    
    21   15   17 1    
    22   15   38 1    
    23   16   21 1    
    24   17   18 1    
    25   17   19 1    
    26   17   39 1    
    27   18   40 1    
    28   19   20 1    
    29   19   21 1    
    30   19   41 1    
    31   20   42 1    
    32   21   22 1    
    33   21   43 1    
    34   22   23 ar   
    35   22   32 ar   
    36   23   24 ar   
    37   23   44 1    
    38   24   25 ar   
    39   25   26 ar   
    40   25   32 ar   
    41   26   27 2    
    42   26   28 ar   
    43   28   29 ar   
    44   28   45 1    
    45   29   30 1    
    46   29   31 ar   
    47   30   46 1    
    48   30   47 1    
    49   31   32 ar   
@<TRIPOS>SUBSTRUCTURE
     1 GTP         1 GROUP             0       ****    0 ROOT    
@<TRIPOS>MOLECULE
GTP
47   49    1
SMALL
USER_CHARGES


@<TRIPOS>ATOM
      1 PG          4.5660   31.3910   21.6350 P.3       1 GTP         0.0000 
      2 O1G         4.6130   31.9070   23.0690 O.co2     1 GTP         0.0000 
      3 O2G         3.8920   32.3190   20.6310 O.co2     1 GTP         0.0000 
      4 O3G         4.1430   30.0120   21.6130 O.3       1 GTP         0.0000 
      5 O3B         6.1600   31.3600   21.2280 O.3       1 GTP         0.0000 
      6 PB          6.8770   31.2020   19.7450 P.3       1 GTP         0.0000 
      7 O1B         7.0790   29.7090   19.4730 O.2       1 GTP         0.0000 
      8 O2B         6.1250   31.9700   18.7490 O.3       1 GTP         0.0000 
      9 O3A         8.2510   31.8900   20.0030 O.3       1 GTP         0.0000 
     10 PA          8.8460   33.2610   19.4110 P.3       1 GTP         0.0000 
     11 O1A         8.8880   33.2560   17.9570 O.2       1 GTP         0.0000 
     12 O2A         8.1050   34.3980   20.1290 O.3       1 GTP         0.0000 
     13 O5'        10.4300   33.1530   19.9000 O.3       1 GTP         0.0000 
     14 C5'        10.5490   33.0440   21.3780 C.3       1 GTP         0.0000 
     15 C4'        12.0460   33.6180   21.4740 C.3       1 GTP         0.0000 
     16 O4'        13.0520   32.8300   20.8180 O.3       1 GTP         0.0000 
     17 C3'        12.3070   34.9690   21.0570 C.3       1 GTP         0.0000 
     18 O3'        13.1090   35.6720   21.9710 O.3       1 GTP         0.0000 
     19 C2'        12.8390   34.9710   19.5930 C.3       1 GTP         0.0000 
     20 O2'        13.6720   35.9610   19.3550 O.3       1 GTP         0.0000 
     21 C1'        13.8460   33.6220   19.9270 C.3       1 GTP         0.0000 
     22 N9         14.0010   32.8330   18.6490 N.pl3     1 GTP         0.0000 
     23 C8         12.9340   32.4520   17.8480 C.ar      1 GTP         0.0000 
     24 N7         13.6400   31.7980   16.8990 N.2       1 GTP         0.0000 
     25 C5         15.0290   31.8890   17.0010 C.ar      1 GTP         0.0000 
     26 C6         15.8990   31.3940   16.2380 C.ar      1 GTP         0.0000 
     27 O6         15.9820   30.6800   15.1910 O.2       1 GTP         0.0000 
     28 N1         17.2740   31.6280   16.8000 N.pl3     1 GTP         0.0000 
     29 C2         17.3040   32.2950   17.8960 C.ar      1 GTP         0.0000 
     30 N2         18.6770   32.4500   18.4750 N.pl3     1 GTP         0.0000 
     31 N3         16.3840   32.7360   18.7390 N.2       1 GTP         0.0000 
     32 C4         15.2180   32.5170   18.1350 C.ar      1 GTP         0.0000 
     33 HOG3        3.1013   29.7523   21.8527 H         1 GTP         0.0000 
     34 HOB2        5.1247   31.6353   18.4370 H         1 GTP         0.0000 
     35 HOA2        7.0451   34.5904   19.9065 H         1 GTP         0.0000 
     36 H5'         9.7718   33.6593   21.8548 H         1 GTP         0.0000 
     37 H5''       10.4216   31.9939   21.6797 H         1 GTP         0.0000 
     38 H4'        12.2583   33.6282   22.5533 H         1 GTP         0.0000 
     39 H3'        11.3699   35.5332   21.1732 H         1 GTP         0.0000 
     40 HO3'       12.8165   35.7279   23.0299 H         1 GTP         0.0000 
     41 H2'        12.1431   35.1631   18.7630 H         1 GTP         0.0000 
     42 HO2'       13.2830   36.9601   19.1092 H         1 GTP         0.0000 
     43 H1'        14.8453   33.7628   20.3647 H         1 GTP         0.0000 
     44 H8         11.8730   32.6240   17.9510 H         1 GTP         0.0000 
     45 HN1        18.1572   31.2365   16.2739 H         1 GTP         0.0000 
     46 HN21       19.5568   32.1296   17.8977 H         1 GTP         0.0000 
     47 HN22       18.8054   32.8843   19.4775 H         1 GTP         0.0000 
@<TRIPOS>BOND
     1    1    2 2    
     2    1    3 1    
     3    1    4 1    
     4    1    5 1    
     5    4   33 1    
     6    5    6 1    
     7    6    7 2    
     8    6    8 1    
     9    6    9 1    
    10    8   34 1    
    11    9   10 1    
    12   10   11 2    
    13   10   12 1    
    14   10   13 1    
    15   12   35 1    
    16   13   14 1    
    17   14   15 1    
    18   14   36 1    
    19   14   37 1    
    20   15   16 1    
    21   15   17 1    
    22   15   38 1    
    23   16   21 1    
    24   17   18 1    
    25   17   19 1    
    26   17   39 1    
    27   18   40 1    
    28   19   20 1    
    29   19   21 1    
    30   19   41 1    
    31   20   42 1    
    32   21   22 1    
    33   21   43 1    
    34   22   23 ar   
    35   22   32 ar   
    36   23   24 ar   
    37   23   44 1    
    38   24   25 ar   
    39   25   26 ar   
    40   25   32 ar   
    41   26   27 2    
    42   26   28 ar   
    43   28   29 ar   
    44   28   45 1    
    45   29   30 1    
    46   29   31 ar   
    47   30   46 1    
    48   30   47 1    
    49   31   32 ar   
@<TRIPOS>SUBSTRUCTURE
     1 GTP         1 GROUP             0       ****    0 ROOT    
@<TRIPOS>MOLECULE
GTP
48   50    1
SMALL
USER_CHARGES


@<TRIPOS>ATOM
      1 PG          4.5660   31.3910   21.6350 P.3       1 GTP         0.0000 
      2 O1G         4.6130   31.9070   23.0690 O.2       1 GTP         0.0000 
      3 O2G         3.8920   32.3190   20.6310 O.3       1 GTP         0.0000 
      4 O3G         4.1430   30.0120   21.6130 O.3       1 GTP         0.0000 
      5 O3B         6.1600   31.3600   21.2280 O.3       1 GTP         0.0000 
      6 PB          6.8770   31.2020   19.7450 P.3       1 GTP         0.0000 
      7 O1B         7.0790   29.7090   19.4730 O.co2     1 GTP         0.0000 
      8 O2B         6.1250   31.9700   18.7490 O.co2     1 GTP         0.0000 
      9 O3A         8.2510   31.8900   20.0030 O.3       1 GTP         0.0000 
     10 PA          8.8460   33.2610   19.4110 P.3       1 GTP         0.0000 
     11 O1A         8.8880   33.2560   17.9570 O.2       1 GTP         0.0000 
     12 O2A         8.1050   34.3980   20.1290 O.3       1 GTP         0.0000 
     13 O5'        10.4300   33.1530   19.9000 O.3       1 GTP         0.0000 
     14 C5'        10.5490   33.0440   21.3780 C.3       1 GTP         0.0000 
     15 C4'        12.0460   33.6180   21.4740 C.3       1 GTP         0.0000 
     16 O4'        13.0520   32.8300   20.8180 O.3       1 GTP         0.0000 
     17 C3'        12.3070   34.9690   21.0570 C.3       1 GTP         0.0000 
     18 O3'        13.1090   35.6720   21.9710 O.3       1 GTP         0.0000 
     19 C2'        12.8390   34.9710   19.5930 C.3       1 GTP         0.0000 
     20 O2'        13.6720   35.9610   19.3550 O.3       1 GTP         0.0000 
     21 C1'        13.8460   33.6220   19.9270 C.3       1 GTP         0.0000 
     22 N9         14.0010   32.8330   18.6490 N.pl3     1 GTP         0.0000 
     23 C8         12.9340   32.4520   17.8480 C.ar      1 GTP         0.0000 
     24 N7         13.6400   31.7980   16.8990 N.pl3     1 GTP         0.0000 
     25 C5         15.0290   31.8890   17.0010 C.ar      1 GTP         0.0000 
     26 C6         15.8990   31.3940   16.2380 C.ar      1 GTP         0.0000 
     27 O6         15.9820   30.6800   15.1910 O.2       1 GTP         0.0000 
     28 N1         17.2740   31.6280   16.8000 N.pl3     1 GTP         0.0000 
     29 C2         17.3040   32.2950   17.8960 C.ar      1 GTP         0.0000 
     30 N2         18.6770   32.4500   18.4750 N.pl3     1 GTP         0.0000 
     31 N3         16.3840   32.7360   18.7390 N.2       1 GTP         0.0000 
     32 C4         15.2180   32.5170   18.1350 C.ar      1 GTP         0.0000 
     33 HOG2        2.8098   32.5054   20.6948 H         1 GTP         0.0000 
     34 HOG3        3.1013   29.7523   21.8527 H         1 GTP         0.0000 
     35 HOA2        7.0451   34.5904   19.9065 H         1 GTP         0.0000 
     36 H5'         9.7718   33.6593   21.8548 H         1 GTP         0.0000 
     37 H5''       10.4216   31.9939   21.6797 H         1 GTP         0.0000 
     38 H4'        12.2583   33.6282   22.5533 H         1 GTP         0.0000 
     39 H3'        11.3699   35.5332   21.1732 H         1 GTP         0.0000 
     40 HO3'       12.8165   35.7279   23.0299 H         1 GTP         0.0000 
     41 H2'        12.1431   35.1631   18.7630 H         1 GTP         0.0000 
     42 HO2'       13.2830   36.9601   19.1092 H         1 GTP         0.0000 
     43 H1'        14.8453   33.7628   20.3647 H         1 GTP         0.0000 
     44 H8         11.8730   32.6240   17.9510 H         1 GTP         0.0000 
     45 HN1        18.1572   31.2365   16.2739 H         1 GTP         0.0000 
     46 HN21       19.5568   32.1296   17.8977 H         1 GTP         0.0000 
     47 HN22       18.8054   32.8843   19.4775 H         1 GTP         0.0000 
     48 H48        13.1150   31.2389   16.1105 H         1 GTP         0.0000 
@<TRIPOS>BOND
     1    1    2 2    
     2    1    3 1    
     3    1    4 1    
     4    1    5 1    
     5    3   33 1    
     6    4   34 1    
     7    5    6 1    
     8    6    7 2    
     9    6    8 1    
    10    6    9 1    
    11    9   10 1    
    12   10   11 2    
    13   10   12 1    
    14   10   13 1    
    15   12   35 1    
    16   13   14 1    
    17   14   15 1    
    18   14   36 1    
    19   14   37 1    
    20   15   16 1    
    21   15   17 1    
    22   15   38 1    
    23   16   21 1    
    24   17   18 1    
    25   17   19 1    
    26   17   39 1    
    27   18   40 1    
    28   19   20 1    
    29   19   21 1    
    30   19   41 1    
    31   20   42 1    
    32   21   22 1    
    33   21   43 1    
    34   22   23 ar   
    35   22   32 ar   
    36   23   24 ar   
    37   23   44 1    
    38   24   25 ar   
    39   24   48 1    
    40   25   26 ar   
    41   25   32 ar   
    42   26   27 2    
    43   26   28 ar   
    44   28   29 ar   
    45   28   45 1    
    46   29   30 1    
    47   29   31 ar   
    48   30   46 1    
    49   30   47 1    
    50   31   32 ar   
@<TRIPOS>SUBSTRUCTURE
     1 GTP         1 GROUP             0       ****    0 ROOT    
@<TRIPOS>MOLECULE
GTP
47   49    1
SMALL
USER_CHARGES


@<TRIPOS>ATOM
      1 PG          4.5660   31.3910   21.6350 P.3       1 GTP         0.0000 
      2 O1G         4.6130   31.9070   23.0690 O.2       1 GTP         0.0000 
      3 O2G         3.8920   32.3190   20.6310 O.3       1 GTP         0.0000 
      4 O3G         4.1430   30.0120   21.6130 O.3       1 GTP         0.0000 
      5 O3B         6.1600   31.3600   21.2280 O.3       1 GTP         0.0000 
      6 PB          6.8770   31.2020   19.7450 P.3       1 GTP         0.0000 
      7 O1B         7.0790   29.7090   19.4730 O.2       1 GTP         0.0000 
      8 O2B         6.1250   31.9700   18.7490 O.3       1 GTP         0.0000 
      9 O3A         8.2510   31.8900   20.0030 O.3       1 GTP         0.0000 
     10 PA          8.8460   33.2610   19.4110 P.3       1 GTP         0.0000 
     11 O1A         8.8880   33.2560   17.9570 O.co2     1 GTP         0.0000 
     12 O2A         8.1050   34.3980   20.1290 O.co2     1 GTP         0.0000 
     13 O5'        10.4300   33.1530   19.9000 O.3       1 GTP         0.0000 
     14 C5'        10.5490   33.0440   21.3780 C.3       1 GTP         0.0000 
     15 C4'        12.0460   33.6180   21.4740 C.3       1 GTP         0.0000 
     16 O4'        13.0520   32.8300   20.8180 O.3       1 GTP         0.0000 
     17 C3'        12.3070   34.9690   21.0570 C.3       1 GTP         0.0000 
     18 O3'        13.1090   35.6720   21.9710 O.3       1 GTP         0.0000 
     19 C2'        12.8390   34.9710   19.5930 C.3       1 GTP         0.0000 
     20 O2'        13.6720   35.9610   19.3550 O.3       1 GTP         0.0000 
     21 C1'        13.8460   33.6220   19.9270 C.3       1 GTP         0.0000 
     22 N9         14.0010   32.8330   18.6490 N.pl3     1 GTP         0.0000 
     23 C8         12.9340   32.4520   17.8480 C.ar      1 GTP         0.0000 
     24 N7         13.6400   31.7980   16.8990 N.2       1 GTP         0.0000 
     25 C5         15.0290   31.8890   17.0010 C.ar      1 GTP         0.0000 
     26 C6         15.8990   31.3940   16.2380 C.ar      1 GTP         0.0000 
     27 O6         15.9820   30.6800   15.1910 O.2       1 GTP         0.0000 
     28 N1         17.2740   31.6280   16.8000 N.pl3     1 GTP         0.0000 
     29 C2         17.3040   32.2950   17.8960 C.ar      1 GTP         0.0000 
     30 N2         18.6770   32.4500   18.4750 N.pl3     1 GTP         0.0000 
     31 N3         16.3840   32.7360   18.7390 N.2       1 GTP         0.0000 
     32 C4         15.2180   32.5170   18.1350 C.ar      1 GTP         0.0000 
     33 HOG2        2.8098   32.5054   20.6948 H         1 GTP         0.0000 
     34 HOG3        3.1013   29.7523   21.8527 H         1 GTP         0.0000 
     35 HOB2        5.1247   31.6353   18.4370 H         1 GTP         0.0000 
     36 H5'         9.7718   33.6593   21.8548 H         1 GTP         0.0000 
     37 H5''       10.4216   31.9939   21.6797 H         1 GTP         0.0000 
     38 H4'        12.2583   33.6282   22.5533 H         1 GTP         0.0000 
     39 H3'        11.3699   35.5332   21.1732 H         1 GTP         0.0000 
     40 HO3'       12.8165   35.7279   23.0299 H         1 GTP         0.0000 
     41 H2'        12.1431   35.1631   18.7630 H         1 GTP         0.0000 
     42 HO2'       13.2830   36.9601   19.1092 H         1 GTP         0.0000 
     43 H1'        14.8453   33.7628   20.3647 H         1 GTP         0.0000 
     44 H8         11.8730   32.6240   17.9510 H         1 GTP         0.0000 
     45 HN1        18.1572   31.2365   16.2739 H         1 GTP         0.0000 
     46 HN21       19.5568   32.1296   17.8977 H         1 GTP         0.0000 
     47 HN22       18.8054   32.8843   19.4775 H         1 GTP         0.0000 
@<TRIPOS>BOND
     1    1    2 2    
     2    1    3 1    
     3    1    4 1    
     4    1    5 1    
     5    3   33 1    
     6    4   34 1    
     7    5    6 1    
     8    6    7 2    
     9    6    8 1    
    10    6    9 1    
    11    8   35 1    
    12    9   10 1    
    13   10   11 2    
    14   10   12 1    
    15   10   13 1    
    16   13   14 1    
    17   14   15 1    
    18   14   36 1    
    19   14   37 1    
    20   15   16 1    
    21   15   17 1    
    22   15   38 1    
    23   16   21 1    
    24   17   18 1    
    25   17   19 1    
    26   17   39 1    
    27   18   40 1    
    28   19   20 1    
    29   19   21 1    
    30   19   41 1    
    31   20   42 1    
    32   21   22 1    
    33   21   43 1    
    34   22   23 ar   
    35   22   32 ar   
    36   23   24 ar   
    37   23   44 1    
    38   24   25 ar   
    39   25   26 ar   
    40   25   32 ar   
    41   26   27 2    
    42   26   28 ar   
    43   28   29 ar   
    44   28   45 1    
    45   29   30 1    
    46   29   31 ar   
    47   30   46 1    
    48   30   47 1    
    49   31   32 ar   
@<TRIPOS>SUBSTRUCTURE
     1 GTP         1 GROUP             0       ****    0 ROOT    
@<TRIPOS>MOLECULE
GTP
45   47    1
SMALL
USER_CHARGES


@<TRIPOS>ATOM
      1 PG          4.5660   31.3910   21.6350 P.3       1 GTP         0.0000 
      2 O1G         4.6130   31.9070   23.0690 O.co2     1 GTP         0.0000 
      3 O2G         3.8920   32.3190   20.6310 O.co2     1 GTP         0.0000 
      4 O3G         4.1430   30.0120   21.6130 O.co2     1 GTP         0.0000 
      5 O3B         6.1600   31.3600   21.2280 O.3       1 GTP         0.0000 
      6 PB          6.8770   31.2020   19.7450 P.3       1 GTP         0.0000 
      7 O1B         7.0790   29.7090   19.4730 O.2       1 GTP         0.0000 
      8 O2B         6.1250   31.9700   18.7490 O.3       1 GTP         0.0000 
      9 O3A         8.2510   31.8900   20.0030 O.3       1 GTP         0.0000 
     10 PA          8.8460   33.2610   19.4110 P.3       1 GTP         0.0000 
     11 O1A         8.8880   33.2560   17.9570 O.co2     1 GTP         0.0000 
     12 O2A         8.1050   34.3980   20.1290 O.co2     1 GTP         0.0000 
     13 O5'        10.4300   33.1530   19.9000 O.3       1 GTP         0.0000 
     14 C5'        10.5490   33.0440   21.3780 C.3       1 GTP         0.0000 
     15 C4'        12.0460   33.6180   21.4740 C.3       1 GTP         0.0000 
     16 O4'        13.0520   32.8300   20.8180 O.3       1 GTP         0.0000 
     17 C3'        12.3070   34.9690   21.0570 C.3       1 GTP         0.0000 
     18 O3'        13.1090   35.6720   21.9710 O.3       1 GTP         0.0000 
     19 C2'        12.8390   34.9710   19.5930 C.3       1 GTP         0.0000 
     20 O2'        13.6720   35.9610   19.3550 O.3       1 GTP         0.0000 
     21 C1'        13.8460   33.6220   19.9270 C.3       1 GTP         0.0000 
     22 N9         14.0010   32.8330   18.6490 N.pl3     1 GTP         0.0000 
     23 C8         12.9340   32.4520   17.8480 C.ar      1 GTP         0.0000 
     24 N7         13.6400   31.7980   16.8990 N.2       1 GTP         0.0000 
     25 C5         15.0290   31.8890   17.0010 C.ar      1 GTP         0.0000 
     26 C6         15.8990   31.3940   16.2380 C.ar      1 GTP         0.0000 
     27 O6         15.9820   30.6800   15.1910 O.2       1 GTP         0.0000 
     28 N1         17.2740   31.6280   16.8000 N.pl3     1 GTP         0.0000 
     29 C2         17.3040   32.2950   17.8960 C.ar      1 GTP         0.0000 
     30 N2         18.6770   32.4500   18.4750 N.pl3     1 GTP         0.0000 
     31 N3         16.3840   32.7360   18.7390 N.2       1 GTP         0.0000 
     32 C4         15.2180   32.5170   18.1350 C.ar      1 GTP         0.0000 
     33 HOB2        5.1247   31.6353   18.4370 H         1 GTP         0.0000 
     34 H5'         9.7718   33.6593   21.8548 H         1 GTP         0.0000 
     35 H5''       10.4216   31.9939   21.6797 H         1 GTP         0.0000 
     36 H4'        12.2583   33.6282   22.5533 H         1 GTP         0.0000 
     37 H3'        11.3699   35.5332   21.1732 H         1 GTP         0.0000 
     38 HO3'       12.8165   35.7279   23.0299 H         1 GTP         0.0000 
     39 H2'        12.1431   35.1631   18.7630 H         1 GTP         0.0000 
     40 HO2'       13.2830   36.9601   19.1092 H         1 GTP         0.0000 
     41 H1'        14.8453   33.7628   20.3647 H         1 GTP         0.0000 
     42 H8         11.8730   32.6240   17.9510 H         1 GTP         0.0000 
     43 HN1        18.1572   31.2365   16.2739 H         1 GTP         0.0000 
     44 HN21       19.5568   32.1296   17.8977 H         1 GTP         0.0000 
     45 HN22       18.8054   32.8843   19.4775 H         1 GTP         0.0000 
@<TRIPOS>BOND
     1    1    2 2    
     2    1    3 1    
     3    1    4 1    
     4    1    5 1    
     5    5    6 1    
     6    6    7 2    
     7    6    8 1    
     8    6    9 1    
     9    8   33 1    
    10    9   10 1    
    11   10   11 2    
    12   10   12 1    
    13   10   13 1    
    14   13   14 1    
    15   14   15 1    
    16   14   34 1    
    17   14   35 1    
    18   15   16 1    
    19   15   17 1    
    20   15   36 1    
    21   16   21 1    
    22   17   18 1    
    23   17   19 1    
    24   17   37 1    
    25   18   38 1    
    26   19   20 1    
    27   19   21 1    
    28   19   39 1    
    29   20   40 1    
    30   21   22 1    
    31   21   41 1    
    32   22   23 ar   
    33   22   32 ar   
    34   23   24 ar   
    35   23   42 1    
    36   24   25 ar   
    37   25   26 ar   
    38   25   32 ar   
    39   26   27 2    
    40   26   28 ar   
    41   28   29 ar   
    42   28   43 1    
    43   29   30 1    
    44   29   31 ar   
    45   30   44 1    
    46   30   45 1    
    47   31   32 ar   
@<TRIPOS>SUBSTRUCTURE
     1 GTP         1 GROUP             0       ****    0 ROOT    
@<TRIPOS>MOLECULE
GTP
48   50    1
SMALL
USER_CHARGES


@<TRIPOS>ATOM
      1 PG          4.5660   31.3910   21.6350 P.3       1 GTP         0.0000 
      2 O1G         4.6130   31.9070   23.0690 O.co2     1 GTP         0.0000 
      3 O2G         3.8920   32.3190   20.6310 O.co2     1 GTP         0.0000 
      4 O3G         4.1430   30.0120   21.6130 O.3       1 GTP         0.0000 
      5 O3B         6.1600   31.3600   21.2280 O.3       1 GTP         0.0000 
      6 PB          6.8770   31.2020   19.7450 P.3       1 GTP         0.0000 
      7 O1B         7.0790   29.7090   19.4730 O.2       1 GTP         0.0000 
      8 O2B         6.1250   31.9700   18.7490 O.3       1 GTP         0.0000 
      9 O3A         8.2510   31.8900   20.0030 O.3       1 GTP         0.0000 
     10 PA          8.8460   33.2610   19.4110 P.3       1 GTP         0.0000 
     11 O1A         8.8880   33.2560   17.9570 O.2       1 GTP         0.0000 
     12 O2A         8.1050   34.3980   20.1290 O.3       1 GTP         0.0000 
     13 O5'        10.4300   33.1530   19.9000 O.3       1 GTP         0.0000 
     14 C5'        10.5490   33.0440   21.3780 C.3       1 GTP         0.0000 
     15 C4'        12.0460   33.6180   21.4740 C.3       1 GTP         0.0000 
     16 O4'        13.0520   32.8300   20.8180 O.3       1 GTP         0.0000 
     17 C3'        12.3070   34.9690   21.0570 C.3       1 GTP         0.0000 
     18 O3'        13.1090   35.6720   21.9710 O.3       1 GTP         0.0000 
     19 C2'        12.8390   34.9710   19.5930 C.3       1 GTP         0.0000 
     20 O2'        13.6720   35.9610   19.3550 O.3       1 GTP         0.0000 
     21 C1'        13.8460   33.6220   19.9270 C.3       1 GTP         0.0000 
     22 N9         14.0010   32.8330   18.6490 N.pl3     1 GTP         0.0000 
     23 C8         12.9340   32.4520   17.8480 C.ar      1 GTP         0.0000 
     24 N7         13.6400   31.7980   16.8990 N.pl3     1 GTP         0.0000 
     25 C5         15.0290   31.8890   17.0010 C.ar      1 GTP         0.0000 
     26 C6         15.8990   31.3940   16.2380 C.ar      1 GTP         0.0000 
     27 O6         15.9820   30.6800   15.1910 O.2       1 GTP         0.0000 
     28 N1         17.2740   31.6280   16.8000 N.pl3     1 GTP         0.0000 
     29 C2         17.3040   32.2950   17.8960 C.ar      1 GTP         0.0000 
     30 N2         18.6770   32.4500   18.4750 N.pl3     1 GTP         0.0000 
     31 N3         16.3840   32.7360   18.7390 N.2       1 GTP         0.0000 
     32 C4         15.2180   32.5170   18.1350 C.ar      1 GTP         0.0000 
     33 HOG3        3.1013   29.7523   21.8527 H         1 GTP         0.0000 
     34 HOB2        5.1247   31.6353   18.4370 H         1 GTP         0.0000 
     35 HOA2        7.0451   34.5904   19.9065 H         1 GTP         0.0000 
     36 H5'         9.7718   33.6593   21.8548 H         1 GTP         0.0000 
     37 H5''       10.4216   31.9939   21.6797 H         1 GTP         0.0000 
     38 H4'        12.2583   33.6282   22.5533 H         1 GTP         0.0000 
     39 H3'        11.3699   35.5332   21.1732 H         1 GTP         0.0000 
     40 HO3'       12.8165   35.7279   23.0299 H         1 GTP         0.0000 
     41 H2'        12.1431   35.1631   18.7630 H         1 GTP         0.0000 
     42 HO2'       13.2830   36.9601   19.1092 H         1 GTP         0.0000 
     43 H1'        14.8453   33.7628   20.3647 H         1 GTP         0.0000 
     44 H8         11.8730   32.6240   17.9510 H         1 GTP         0.0000 
     45 HN1        18.1572   31.2365   16.2739 H         1 GTP         0.0000 
     46 HN21       19.5568   32.1296   17.8977 H         1 GTP         0.0000 
     47 HN22       18.8054   32.8843   19.4775 H         1 GTP         0.0000 
     48 H48        13.1150   31.2389   16.1105 H         1 GTP         0.0000 
@<TRIPOS>BOND
     1    1    2 2    
     2    1    3 1    
     3    1    4 1    
     4    1    5 1    
     5    4   33 1    
     6    5    6 1    
     7    6    7 2    
     8    6    8 1    
     9    6    9 1    
    10    8   34 1    
    11    9   10 1    
    12   10   11 2    
    13   10   12 1    
    14   10   13 1    
    15   12   35 1    
    16   13   14 1    
    17   14   15 1    
    18   14   36 1    
    19   14   37 1    
    20   15   16 1    
    21   15   17 1    
    22   15   38 1    
    23   16   21 1    
    24   17   18 1    
    25   17   19 1    
    26   17   39 1    
    27   18   40 1    
    28   19   20 1    
    29   19   21 1    
    30   19   41 1    
    31   20   42 1    
    32   21   22 1    
    33   21   43 1    
    34   22   23 ar   
    35   22   32 ar   
    36   23   24 ar   
    37   23   44 1    
    38   24   25 ar   
    39   24   48 1    
    40   25   26 ar   
    41   25   32 ar   
    42   26   27 2    
    43   26   28 ar   
    44   28   29 ar   
    45   28   45 1    
    46   29   30 1    
    47   29   31 ar   
    48   30   46 1    
    49   30   47 1    
    50   31   32 ar   
@<TRIPOS>SUBSTRUCTURE
     1 GTP         1 GROUP             0       ****    0 ROOT    
@<TRIPOS>MOLECULE
GTP
44   46    1
SMALL
USER_CHARGES


@<TRIPOS>ATOM
      1 PG          4.5660   31.3910   21.6350 P.3       1 GTP         0.0000 
      2 O1G         4.6130   31.9070   23.0690 O.co2     1 GTP         0.0000 
      3 O2G         3.8920   32.3190   20.6310 O.co2     1 GTP         0.0000 
      4 O3G         4.1430   30.0120   21.6130 O.co2     1 GTP         0.0000 
      5 O3B         6.1600   31.3600   21.2280 O.3       1 GTP         0.0000 
      6 PB          6.8770   31.2020   19.7450 P.3       1 GTP         0.0000 
      7 O1B         7.0790   29.7090   19.4730 O.co2     1 GTP         0.0000 
      8 O2B         6.1250   31.9700   18.7490 O.co2     1 GTP         0.0000 
      9 O3A         8.2510   31.8900   20.0030 O.3       1 GTP         0.0000 
     10 PA          8.8460   33.2610   19.4110 P.3       1 GTP         0.0000 
     11 O1A         8.8880   33.2560   17.9570 O.co2     1 GTP         0.0000 
     12 O2A         8.1050   34.3980   20.1290 O.co2     1 GTP         0.0000 
     13 O5'        10.4300   33.1530   19.9000 O.3       1 GTP         0.0000 
     14 C5'        10.5490   33.0440   21.3780 C.3       1 GTP         0.0000 
     15 C4'        12.0460   33.6180   21.4740 C.3       1 GTP         0.0000 
     16 O4'        13.0520   32.8300   20.8180 O.3       1 GTP         0.0000 
     17 C3'        12.3070   34.9690   21.0570 C.3       1 GTP         0.0000 
     18 O3'        13.1090   35.6720   21.9710 O.3       1 GTP         0.0000 
     19 C2'        12.8390   34.9710   19.5930 C.3       1 GTP         0.0000 
     20 O2'        13.6720   35.9610   19.3550 O.3       1 GTP         0.0000 
     21 C1'        13.8460   33.6220   19.9270 C.3       1 GTP         0.0000 
     22 N9         14.0010   32.8330   18.6490 N.pl3     1 GTP         0.0000 
     23 C8         12.9340   32.4520   17.8480 C.ar      1 GTP         0.0000 
     24 N7         13.6400   31.7980   16.8990 N.2       1 GTP         0.0000 
     25 C5         15.0290   31.8890   17.0010 C.ar      1 GTP         0.0000 
     26 C6         15.8990   31.3940   16.2380 C.ar      1 GTP         0.0000 
     27 O6         15.9820   30.6800   15.1910 O.2       1 GTP         0.0000 
     28 N1         17.2740   31.6280   16.8000 N.pl3     1 GTP         0.0000 
     29 C2         17.3040   32.2950   17.8960 C.ar      1 GTP         0.0000 
     30 N2         18.6770   32.4500   18.4750 N.pl3     1 GTP         0.0000 
     31 N3         16.3840   32.7360   18.7390 N.2       1 GTP         0.0000 
     32 C4         15.2180   32.5170   18.1350 C.ar      1 GTP         0.0000 
     33 H5'         9.7718   33.6593   21.8548 H         1 GTP         0.0000 
     34 H5''       10.4216   31.9939   21.6797 H         1 GTP         0.0000 
     35 H4'        12.2583   33.6282   22.5533 H         1 GTP         0.0000 
     36 H3'        11.3699   35.5332   21.1732 H         1 GTP         0.0000 
     37 HO3'       12.8165   35.7279   23.0299 H         1 GTP         0.0000 
     38 H2'        12.1431   35.1631   18.7630 H         1 GTP         0.0000 
     39 HO2'       13.2830   36.9601   19.1092 H         1 GTP         0.0000 
     40 H1'        14.8453   33.7628   20.3647 H         1 GTP         0.0000 
     41 H8         11.8730   32.6240   17.9510 H         1 GTP         0.0000 
     42 HN1        18.1572   31.2365   16.2739 H         1 GTP         0.0000 
     43 HN21       19.5568   32.1296   17.8977 H         1 GTP         0.0000 
     44 HN22       18.8054   32.8843   19.4775 H         1 GTP         0.0000 
@<TRIPOS>BOND
     1    1    2 2    
     2    1    3 1    
     3    1    4 1    
     4    1    5 1    
     5    5    6 1    
     6    6    7 2    
     7    6    8 1    
     8    6    9 1    
     9    9   10 1    
    10   10   11 2    
    11   10   12 1    
    12   10   13 1    
    13   13   14 1    
    14   14   15 1    
    15   14   33 1    
    16   14   34 1    
    17   15   16 1    
    18   15   17 1    
    19   15   35 1    
    20   16   21 1    
    21   17   18 1    
    22   17   19 1    
    23   17   36 1    
    24   18   37 1    
    25   19   20 1    
    26   19   21 1    
    27   19   38 1    
    28   20   39 1    
    29   21   22 1    
    30   21   40 1    
    31   22   23 ar   
    32   22   32 ar   
    33   23   24 ar   
    34   23   41 1    
    35   24   25 ar   
    36   25   26 ar   
    37   25   32 ar   
    38   26   27 2    
    39   26   28 ar   
    40   28   29 ar   
    41   28   42 1    
    42   29   30 1    
    43   29   31 ar   
    44   30   43 1    
    45   30   44 1    
    46   31   32 ar   
@<TRIPOS>SUBSTRUCTURE
     1 GTP         1 GROUP             0       ****    0 ROOT    
@<TRIPOS>MOLECULE
GTP
48   50    1
SMALL
USER_CHARGES


@<TRIPOS>ATOM
      1 PG          4.5660   31.3910   21.6350 P.3       1 GTP         0.0000 
      2 O1G         4.6130   31.9070   23.0690 O.2       1 GTP         0.0000 
      3 O2G         3.8920   32.3190   20.6310 O.3       1 GTP         0.0000 
      4 O3G         4.1430   30.0120   21.6130 O.3       1 GTP         0.0000 
      5 O3B         6.1600   31.3600   21.2280 O.3       1 GTP         0.0000 
      6 PB          6.8770   31.2020   19.7450 P.3       1 GTP         0.0000 
      7 O1B         7.0790   29.7090   19.4730 O.2       1 GTP         0.0000 
      8 O2B         6.1250   31.9700   18.7490 O.3       1 GTP         0.0000 
      9 O3A         8.2510   31.8900   20.0030 O.3       1 GTP         0.0000 
     10 PA          8.8460   33.2610   19.4110 P.3       1 GTP         0.0000 
     11 O1A         8.8880   33.2560   17.9570 O.co2     1 GTP         0.0000 
     12 O2A         8.1050   34.3980   20.1290 O.co2     1 GTP         0.0000 
     13 O5'        10.4300   33.1530   19.9000 O.3       1 GTP         0.0000 
     14 C5'        10.5490   33.0440   21.3780 C.3       1 GTP         0.0000 
     15 C4'        12.0460   33.6180   21.4740 C.3       1 GTP         0.0000 
     16 O4'        13.0520   32.8300   20.8180 O.3       1 GTP         0.0000 
     17 C3'        12.3070   34.9690   21.0570 C.3       1 GTP         0.0000 
     18 O3'        13.1090   35.6720   21.9710 O.3       1 GTP         0.0000 
     19 C2'        12.8390   34.9710   19.5930 C.3       1 GTP         0.0000 
     20 O2'        13.6720   35.9610   19.3550 O.3       1 GTP         0.0000 
     21 C1'        13.8460   33.6220   19.9270 C.3       1 GTP         0.0000 
     22 N9         14.0010   32.8330   18.6490 N.pl3     1 GTP         0.0000 
     23 C8         12.9340   32.4520   17.8480 C.ar      1 GTP         0.0000 
     24 N7         13.6400   31.7980   16.8990 N.pl3     1 GTP         0.0000 
     25 C5         15.0290   31.8890   17.0010 C.ar      1 GTP         0.0000 
     26 C6         15.8990   31.3940   16.2380 C.ar      1 GTP         0.0000 
     27 O6         15.9820   30.6800   15.1910 O.2       1 GTP         0.0000 
     28 N1         17.2740   31.6280   16.8000 N.pl3     1 GTP         0.0000 
     29 C2         17.3040   32.2950   17.8960 C.ar      1 GTP         0.0000 
     30 N2         18.6770   32.4500   18.4750 N.pl3     1 GTP         0.0000 
     31 N3         16.3840   32.7360   18.7390 N.2       1 GTP         0.0000 
     32 C4         15.2180   32.5170   18.1350 C.ar      1 GTP         0.0000 
     33 HOG2        2.8098   32.5054   20.6948 H         1 GTP         0.0000 
     34 HOG3        3.1013   29.7523   21.8527 H         1 GTP         0.0000 
     35 HOB2        5.1247   31.6353   18.4370 H         1 GTP         0.0000 
     36 H5'         9.7718   33.6593   21.8548 H         1 GTP         0.0000 
     37 H5''       10.4216   31.9939   21.6797 H         1 GTP         0.0000 
     38 H4'        12.2583   33.6282   22.5533 H         1 GTP         0.0000 
     39 H3'        11.3699   35.5332   21.1732 H         1 GTP         0.0000 
     40 HO3'       12.8165   35.7279   23.0299 H         1 GTP         0.0000 
     41 H2'        12.1431   35.1631   18.7630 H         1 GTP         0.0000 
     42 HO2'       13.2830   36.9601   19.1092 H         1 GTP         0.0000 
     43 H1'        14.8453   33.7628   20.3647 H         1 GTP         0.0000 
     44 H8         11.8730   32.6240   17.9510 H         1 GTP         0.0000 
     45 HN1        18.1572   31.2365   16.2739 H         1 GTP         0.0000 
     46 HN21       19.5568   32.1296   17.8977 H         1 GTP         0.0000 
     47 HN22       18.8054   32.8843   19.4775 H         1 GTP         0.0000 
     48 H48        13.1150   31.2389   16.1105 H         1 GTP         0.0000 
@<TRIPOS>BOND
     1    1    2 2    
     2    1    3 1    
     3    1    4 1    
     4    1    5 1    
     5    3   33 1    
     6    4   34 1    
     7    5    6 1    
     8    6    7 2    
     9    6    8 1    
    10    6    9 1    
    11    8   35 1    
    12    9   10 1    
    13   10   11 2    
    14   10   12 1    
    15   10   13 1    
    16   13   14 1    
    17   14   15 1    
    18   14   36 1    
    19   14   37 1    
    20   15   16 1    
    21   15   17 1    
    22   15   38 1    
    23   16   21 1    
    24   17   18 1    
    25   17   19 1    
    26   17   39 1    
    27   18   40 1    
    28   19   20 1    
    29   19   21 1    
    30   19   41 1    
    31   20   42 1    
    32   21   22 1    
    33   21   43 1    
    34   22   23 ar   
    35   22   32 ar   
    36   23   24 ar   
    37   23   44 1    
    38   24   25 ar   
    39   24   48 1    
    40   25   26 ar   
    41   25   32 ar   
    42   26   27 2    
    43   26   28 ar   
    44   28   29 ar   
    45   28   45 1    
    46   29   30 1    
    47   29   31 ar   
    48   30   46 1    
    49   30   47 1    
    50   31   32 ar   
@<TRIPOS>SUBSTRUCTURE
     1 GTP         1 GROUP             0       ****    0 ROOT    
@<TRIPOS>MOLECULE
GTP
45   47    1
SMALL
USER_CHARGES


@<TRIPOS>ATOM
      1 PG          4.5660   31.3910   21.6350 P.3       1 GTP         0.0000 
      2 O1G         4.6130   31.9070   23.0690 O.co2     1 GTP         0.0000 
      3 O2G         3.8920   32.3190   20.6310 O.co2     1 GTP         0.0000 
      4 O3G         4.1430   30.0120   21.6130 O.co2     1 GTP         0.0000 
      5 O3B         6.1600   31.3600   21.2280 O.3       1 GTP         0.0000 
      6 PB          6.8770   31.2020   19.7450 P.3       1 GTP         0.0000 
      7 O1B         7.0790   29.7090   19.4730 O.co2     1 GTP         0.0000 
      8 O2B         6.1250   31.9700   18.7490 O.co2     1 GTP         0.0000 
      9 O3A         8.2510   31.8900   20.0030 O.3       1 GTP         0.0000 
     10 PA          8.8460   33.2610   19.4110 P.3       1 GTP         0.0000 
     11 O1A         8.8880   33.2560   17.9570 O.2       1 GTP         0.0000 
     12 O2A         8.1050   34.3980   20.1290 O.3       1 GTP         0.0000 
     13 O5'        10.4300   33.1530   19.9000 O.3       1 GTP         0.0000 
     14 C5'        10.5490   33.0440   21.3780 C.3       1 GTP         0.0000 
     15 C4'        12.0460   33.6180   21.4740 C.3       1 GTP         0.0000 
     16 O4'        13.0520   32.8300   20.8180 O.3       1 GTP         0.0000 
     17 C3'        12.3070   34.9690   21.0570 C.3       1 GTP         0.0000 
     18 O3'        13.1090   35.6720   21.9710 O.3       1 GTP         0.0000 
     19 C2'        12.8390   34.9710   19.5930 C.3       1 GTP         0.0000 
     20 O2'        13.6720   35.9610   19.3550 O.3       1 GTP         0.0000 
     21 C1'        13.8460   33.6220   19.9270 C.3       1 GTP         0.0000 
     22 N9         14.0010   32.8330   18.6490 N.pl3     1 GTP         0.0000 
     23 C8         12.9340   32.4520   17.8480 C.ar      1 GTP         0.0000 
     24 N7         13.6400   31.7980   16.8990 N.2       1 GTP         0.0000 
     25 C5         15.0290   31.8890   17.0010 C.ar      1 GTP         0.0000 
     26 C6         15.8990   31.3940   16.2380 C.ar      1 GTP         0.0000 
     27 O6         15.9820   30.6800   15.1910 O.2       1 GTP         0.0000 
     28 N1         17.2740   31.6280   16.8000 N.pl3     1 GTP         0.0000 
     29 C2         17.3040   32.2950   17.8960 C.ar      1 GTP         0.0000 
     30 N2         18.6770   32.4500   18.4750 N.pl3     1 GTP         0.0000 
     31 N3         16.3840   32.7360   18.7390 N.2       1 GTP         0.0000 
     32 C4         15.2180   32.5170   18.1350 C.ar      1 GTP         0.0000 
     33 HOA2        7.0451   34.5904   19.9065 H         1 GTP         0.0000 
     34 H5'         9.7718   33.6593   21.8548 H         1 GTP         0.0000 
     35 H5''       10.4216   31.9939   21.6797 H         1 GTP         0.0000 
     36 H4'        12.2583   33.6282   22.5533 H         1 GTP         0.0000 
     37 H3'        11.3699   35.5332   21.1732 H         1 GTP         0.0000 
     38 HO3'       12.8165   35.7279   23.0299 H         1 GTP         0.0000 
     39 H2'        12.1431   35.1631   18.7630 H         1 GTP         0.0000 
     40 HO2'       13.2830   36.9601   19.1092 H         1 GTP         0.0000 
     41 H1'        14.8453   33.7628   20.3647 H         1 GTP         0.0000 
     42 H8         11.8730   32.6240   17.9510 H         1 GTP         0.0000 
     43 HN1        18.1572   31.2365   16.2739 H         1 GTP         0.0000 
     44 HN21       19.5568   32.1296   17.8977 H         1 GTP         0.0000 
     45 HN22       18.8054   32.8843   19.4775 H         1 GTP         0.0000 
@<TRIPOS>BOND
     1    1    2 2    
     2    1    3 1    
     3    1    4 1    
     4    1    5 1    
     5    5    6 1    
     6    6    7 2    
     7    6    8 1    
     8    6    9 1    
     9    9   10 1    
    10   10   11 2    
    11   10   12 1    
    12   10   13 1    
    13   12   33 1    
    14   13   14 1    
    15   14   15 1    
    16   14   34 1    
    17   14   35 1    
    18   15   16 1    
    19   15   17 1    
    20   15   36 1    
    21   16   21 1    
    22   17   18 1    
    23   17   19 1    
    24   17   37 1    
    25   18   38 1    
    26   19   20 1    
    27   19   21 1    
    28   19   39 1    
    29   20   40 1    
    30   21   22 1    
    31   21   41 1    
    32   22   23 ar   
    33   22   32 ar   
    34   23   24 ar   
    35   23   42 1    
    36   24   25 ar   
    37   25   26 ar   
    38   25   32 ar   
    39   26   27 2    
    40   26   28 ar   
    41   28   29 ar   
    42   28   43 1    
    43   29   30 1    
    44   29   31 ar   
    45   30   44 1    
    46   30   45 1    
    47   31   32 ar   
@<TRIPOS>SUBSTRUCTURE
     1 GTP         1 GROUP             0       ****    0 ROOT    
@<TRIPOS>MOLECULE
GTP
48   50    1
SMALL
USER_CHARGES


@<TRIPOS>ATOM
      1 PG          4.5660   31.3910   21.6350 P.3       1 GTP         0.0000 
      2 O1G         4.6130   31.9070   23.0690 O.2       1 GTP         0.0000 
      3 O2G         3.8920   32.3190   20.6310 O.3       1 GTP         0.0000 
      4 O3G         4.1430   30.0120   21.6130 O.3       1 GTP         0.0000 
      5 O3B         6.1600   31.3600   21.2280 O.3       1 GTP         0.0000 
      6 PB          6.8770   31.2020   19.7450 P.3       1 GTP         0.0000 
      7 O1B         7.0790   29.7090   19.4730 O.2       1 GTP         0.0000 
      8 O2B         6.1250   31.9700   18.7490 O.3       1 GTP         0.0000 
      9 O3A         8.2510   31.8900   20.0030 O.3       1 GTP         0.0000 
     10 PA          8.8460   33.2610   19.4110 P.3       1 GTP         0.0000 
     11 O1A         8.8880   33.2560   17.9570 O.2       1 GTP         0.0000 
     12 O2A         8.1050   34.3980   20.1290 O.3       1 GTP         0.0000 
     13 O5'        10.4300   33.1530   19.9000 O.3       1 GTP         0.0000 
     14 C5'        10.5490   33.0440   21.3780 C.3       1 GTP         0.0000 
     15 C4'        12.0460   33.6180   21.4740 C.3       1 GTP         0.0000 
     16 O4'        13.0520   32.8300   20.8180 O.3       1 GTP         0.0000 
     17 C3'        12.3070   34.9690   21.0570 C.3       1 GTP         0.0000 
     18 O3'        13.1090   35.6720   21.9710 O.3       1 GTP         0.0000 
     19 C2'        12.8390   34.9710   19.5930 C.3       1 GTP         0.0000 
     20 O2'        13.6720   35.9610   19.3550 O.3       1 GTP         0.0000 
     21 C1'        13.8460   33.6220   19.9270 C.3       1 GTP         0.0000 
     22 N9         14.0010   32.8330   18.6490 N.pl3     1 GTP         0.0000 
     23 C8         12.9340   32.4520   17.8480 C.ar      1 GTP         0.0000 
     24 N7         13.6400   31.7980   16.8990 N.2       1 GTP         0.0000 
     25 C5         15.0290   31.8890   17.0010 C.ar      1 GTP         0.0000 
     26 C6         15.8990   31.3940   16.2380 C.ar      1 GTP         0.0000 
     27 O6         15.9820   30.6800   15.1910 O.2       1 GTP         0.0000 
     28 N1         17.2740   31.6280   16.8000 N.pl3     1 GTP         0.0000 
     29 C2         17.3040   32.2950   17.8960 C.ar      1 GTP         0.0000 
     30 N2         18.6770   32.4500   18.4750 N.pl3     1 GTP         0.0000 
     31 N3         16.3840   32.7360   18.7390 N.2       1 GTP         0.0000 
     32 C4         15.2180   32.5170   18.1350 C.ar      1 GTP         0.0000 
     33 HOG2        2.8098   32.5054   20.6948 H         1 GTP         0.0000 
     34 HOG3        3.1013   29.7523   21.8527 H         1 GTP         0.0000 
     35 HOB2        5.1247   31.6353   18.4370 H         1 GTP         0.0000 
     36 HOA2        7.0451   34.5904   19.9065 H         1 GTP         0.0000 
     37 H5'         9.7718   33.6593   21.8548 H         1 GTP         0.0000 
     38 H5''       10.4216   31.9939   21.6797 H         1 GTP         0.0000 
     39 H4'        12.2583   33.6282   22.5533 H         1 GTP         0.0000 
     40 H3'        11.3699   35.5332   21.1732 H         1 GTP         0.0000 
     41 HO3'       12.8165   35.7279   23.0299 H         1 GTP         0.0000 
     42 H2'        12.1431   35.1631   18.7630 H         1 GTP         0.0000 
     43 HO2'       13.2830   36.9601   19.1092 H         1 GTP         0.0000 
     44 H1'        14.8453   33.7628   20.3647 H         1 GTP         0.0000 
     45 H8         11.8730   32.6240   17.9510 H         1 GTP         0.0000 
     46 HN1        18.1572   31.2365   16.2739 H         1 GTP         0.0000 
     47 HN21       19.5568   32.1296   17.8977 H         1 GTP         0.0000 
     48 HN22       18.8054   32.8843   19.4775 H         1 GTP         0.0000 
@<TRIPOS>BOND
     1    1    2 2    
     2    1    3 1    
     3    1    4 1    
     4    1    5 1    
     5    3   33 1    
     6    4   34 1    
     7    5    6 1    
     8    6    7 2    
     9    6    8 1    
    10    6    9 1    
    11    8   35 1    
    12    9   10 1    
    13   10   11 2    
    14   10   12 1    
    15   10   13 1    
    16   12   36 1    
    17   13   14 1    
    18   14   15 1    
    19   14   37 1    
    20   14   38 1    
    21   15   16 1    
    22   15   17 1    
    23   15   39 1    
    24   16   21 1    
    25   17   18 1    
    26   17   19 1    
    27   17   40 1    
    28   18   41 1    
    29   19   20 1    
    30   19   21 1    
    31   19   42 1    
    32   20   43 1    
    33   21   22 1    
    34   21   44 1    
    35   22   23 ar   
    36   22   32 ar   
    37   23   24 ar   
    38   23   45 1    
    39   24   25 ar   
    40   25   26 ar   
    41   25   32 ar   
    42   26   27 2    
    43   26   28 ar   
    44   28   29 ar   
    45   28   46 1    
    46   29   30 1    
    47   29   31 ar   
    48   30   47 1    
    49   30   48 1    
    50   31   32 ar   
@<TRIPOS>SUBSTRUCTURE
     1 GTP         1 GROUP             0       ****    0 ROOT    
@<TRIPOS>MOLECULE
GTP
46   48    1
SMALL
USER_CHARGES


@<TRIPOS>ATOM
      1 PG          4.5660   31.3910   21.6350 P.3       1 GTP         0.0000 
      2 O1G         4.6130   31.9070   23.0690 O.co2     1 GTP         0.0000 
      3 O2G         3.8920   32.3190   20.6310 O.co2     1 GTP         0.0000 
      4 O3G         4.1430   30.0120   21.6130 O.co2     1 GTP         0.0000 
      5 O3B         6.1600   31.3600   21.2280 O.3       1 GTP         0.0000 
      6 PB          6.8770   31.2020   19.7450 P.3       1 GTP         0.0000 
      7 O1B         7.0790   29.7090   19.4730 O.2       1 GTP         0.0000 
      8 O2B         6.1250   31.9700   18.7490 O.3       1 GTP         0.0000 
      9 O3A         8.2510   31.8900   20.0030 O.3       1 GTP         0.0000 
     10 PA          8.8460   33.2610   19.4110 P.3       1 GTP         0.0000 
     11 O1A         8.8880   33.2560   17.9570 O.2       1 GTP         0.0000 
     12 O2A         8.1050   34.3980   20.1290 O.3       1 GTP         0.0000 
     13 O5'        10.4300   33.1530   19.9000 O.3       1 GTP         0.0000 
     14 C5'        10.5490   33.0440   21.3780 C.3       1 GTP         0.0000 
     15 C4'        12.0460   33.6180   21.4740 C.3       1 GTP         0.0000 
     16 O4'        13.0520   32.8300   20.8180 O.3       1 GTP         0.0000 
     17 C3'        12.3070   34.9690   21.0570 C.3       1 GTP         0.0000 
     18 O3'        13.1090   35.6720   21.9710 O.3       1 GTP         0.0000 
     19 C2'        12.8390   34.9710   19.5930 C.3       1 GTP         0.0000 
     20 O2'        13.6720   35.9610   19.3550 O.3       1 GTP         0.0000 
     21 C1'        13.8460   33.6220   19.9270 C.3       1 GTP         0.0000 
     22 N9         14.0010   32.8330   18.6490 N.pl3     1 GTP         0.0000 
     23 C8         12.9340   32.4520   17.8480 C.ar      1 GTP         0.0000 
     24 N7         13.6400   31.7980   16.8990 N.2       1 GTP         0.0000 
     25 C5         15.0290   31.8890   17.0010 C.ar      1 GTP         0.0000 
     26 C6         15.8990   31.3940   16.2380 C.ar      1 GTP         0.0000 
     27 O6         15.9820   30.6800   15.1910 O.2       1 GTP         0.0000 
     28 N1         17.2740   31.6280   16.8000 N.pl3     1 GTP         0.0000 
     29 C2         17.3040   32.2950   17.8960 C.ar      1 GTP         0.0000 
     30 N2         18.6770   32.4500   18.4750 N.pl3     1 GTP         0.0000 
     31 N3         16.3840   32.7360   18.7390 N.2       1 GTP         0.0000 
     32 C4         15.2180   32.5170   18.1350 C.ar      1 GTP         0.0000 
     33 HOB2        5.1247   31.6353   18.4370 H         1 GTP         0.0000 
     34 HOA2        7.0451   34.5904   19.9065 H         1 GTP         0.0000 
     35 H5'         9.7718   33.6593   21.8548 H         1 GTP         0.0000 
     36 H5''       10.4216   31.9939   21.6797 H         1 GTP         0.0000 
     37 H4'        12.2583   33.6282   22.5533 H         1 GTP         0.0000 
     38 H3'        11.3699   35.5332   21.1732 H         1 GTP         0.0000 
     39 HO3'       12.8165   35.7279   23.0299 H         1 GTP         0.0000 
     40 H2'        12.1431   35.1631   18.7630 H         1 GTP         0.0000 
     41 HO2'       13.2830   36.9601   19.1092 H         1 GTP         0.0000 
     42 H1'        14.8453   33.7628   20.3647 H         1 GTP         0.0000 
     43 H8         11.8730   32.6240   17.9510 H         1 GTP         0.0000 
     44 HN1        18.1572   31.2365   16.2739 H         1 GTP         0.0000 
     45 HN21       19.5568   32.1296   17.8977 H         1 GTP         0.0000 
     46 HN22       18.8054   32.8843   19.4775 H         1 GTP         0.0000 
@<TRIPOS>BOND
     1    1    2 2    
     2    1    3 1    
     3    1    4 1    
     4    1    5 1    
     5    5    6 1    
     6    6    7 2    
     7    6    8 1    
     8    6    9 1    
     9    8   33 1    
    10    9   10 1    
    11   10   11 2    
    12   10   12 1    
    13   10   13 1    
    14   12   34 1    
    15   13   14 1    
    16   14   15 1    
    17   14   35 1    
    18   14   36 1    
    19   15   16 1    
    20   15   17 1    
    21   15   37 1    
    22   16   21 1    
    23   17   18 1    
    24   17   19 1    
    25   17   38 1    
    26   18   39 1    
    27   19   20 1    
    28   19   21 1    
    29   19   40 1    
    30   20   41 1    
    31   21   22 1    
    32   21   42 1    
    33   22   23 ar   
    34   22   32 ar   
    35   23   24 ar   
    36   23   43 1    
    37   24   25 ar   
    38   25   26 ar   
    39   25   32 ar   
    40   26   27 2    
    41   26   28 ar   
    42   28   29 ar   
    43   28   44 1    
    44   29   30 1    
    45   29   31 ar   
    46   30   45 1    
    47   30   46 1    
    48   31   32 ar   
@<TRIPOS>SUBSTRUCTURE
     1 GTP         1 GROUP             0       ****    0 ROOT    
@<TRIPOS>MOLECULE
GTP
46   48    1
SMALL
USER_CHARGES


@<TRIPOS>ATOM
      1 PG          4.5660   31.3910   21.6350 P.3       1 GTP         0.0000 
      2 O1G         4.6130   31.9070   23.0690 O.co2     1 GTP         0.0000 
      3 O2G         3.8920   32.3190   20.6310 O.co2     1 GTP         0.0000 
      4 O3G         4.1430   30.0120   21.6130 O.co2     1 GTP         0.0000 
      5 O3B         6.1600   31.3600   21.2280 O.3       1 GTP         0.0000 
      6 PB          6.8770   31.2020   19.7450 P.3       1 GTP         0.0000 
      7 O1B         7.0790   29.7090   19.4730 O.2       1 GTP         0.0000 
      8 O2B         6.1250   31.9700   18.7490 O.3       1 GTP         0.0000 
      9 O3A         8.2510   31.8900   20.0030 O.3       1 GTP         0.0000 
     10 PA          8.8460   33.2610   19.4110 P.3       1 GTP         0.0000 
     11 O1A         8.8880   33.2560   17.9570 O.co2     1 GTP         0.0000 
     12 O2A         8.1050   34.3980   20.1290 O.co2     1 GTP         0.0000 
     13 O5'        10.4300   33.1530   19.9000 O.3       1 GTP         0.0000 
     14 C5'        10.5490   33.0440   21.3780 C.3       1 GTP         0.0000 
     15 C4'        12.0460   33.6180   21.4740 C.3       1 GTP         0.0000 
     16 O4'        13.0520   32.8300   20.8180 O.3       1 GTP         0.0000 
     17 C3'        12.3070   34.9690   21.0570 C.3       1 GTP         0.0000 
     18 O3'        13.1090   35.6720   21.9710 O.3       1 GTP         0.0000 
     19 C2'        12.8390   34.9710   19.5930 C.3       1 GTP         0.0000 
     20 O2'        13.6720   35.9610   19.3550 O.3       1 GTP         0.0000 
     21 C1'        13.8460   33.6220   19.9270 C.3       1 GTP         0.0000 
     22 N9         14.0010   32.8330   18.6490 N.pl3     1 GTP         0.0000 
     23 C8         12.9340   32.4520   17.8480 C.ar      1 GTP         0.0000 
     24 N7         13.6400   31.7980   16.8990 N.pl3     1 GTP         0.0000 
     25 C5         15.0290   31.8890   17.0010 C.ar      1 GTP         0.0000 
     26 C6         15.8990   31.3940   16.2380 C.ar      1 GTP         0.0000 
     27 O6         15.9820   30.6800   15.1910 O.2       1 GTP         0.0000 
     28 N1         17.2740   31.6280   16.8000 N.pl3     1 GTP         0.0000 
     29 C2         17.3040   32.2950   17.8960 C.ar      1 GTP         0.0000 
     30 N2         18.6770   32.4500   18.4750 N.pl3     1 GTP         0.0000 
     31 N3         16.3840   32.7360   18.7390 N.2       1 GTP         0.0000 
     32 C4         15.2180   32.5170   18.1350 C.ar      1 GTP         0.0000 
     33 HOB2        5.1247   31.6353   18.4370 H         1 GTP         0.0000 
     34 H5'         9.7718   33.6593   21.8548 H         1 GTP         0.0000 
     35 H5''       10.4216   31.9939   21.6797 H         1 GTP         0.0000 
     36 H4'        12.2583   33.6282   22.5533 H         1 GTP         0.0000 
     37 H3'        11.3699   35.5332   21.1732 H         1 GTP         0.0000 
     38 HO3'       12.8165   35.7279   23.0299 H         1 GTP         0.0000 
     39 H2'        12.1431   35.1631   18.7630 H         1 GTP         0.0000 
     40 HO2'       13.2830   36.9601   19.1092 H         1 GTP         0.0000 
     41 H1'        14.8453   33.7628   20.3647 H         1 GTP         0.0000 
     42 H8         11.8730   32.6240   17.9510 H         1 GTP         0.0000 
     43 HN1        18.1572   31.2365   16.2739 H         1 GTP         0.0000 
     44 HN21       19.5568   32.1296   17.8977 H         1 GTP         0.0000 
     45 HN22       18.8054   32.8843   19.4775 H         1 GTP         0.0000 
     46 H46        13.1150   31.2389   16.1105 H         1 GTP         0.0000 
@<TRIPOS>BOND
     1    1    2 2    
     2    1    3 1    
     3    1    4 1    
     4    1    5 1    
     5    5    6 1    
     6    6    7 2    
     7    6    8 1    
     8    6    9 1    
     9    8   33 1    
    10    9   10 1    
    11   10   11 2    
    12   10   12 1    
    13   10   13 1    
    14   13   14 1    
    15   14   15 1    
    16   14   34 1    
    17   14   35 1    
    18   15   16 1    
    19   15   17 1    
    20   15   36 1    
    21   16   21 1    
    22   17   18 1    
    23   17   19 1    
    24   17   37 1    
    25   18   38 1    
    26   19   20 1    
    27   19   21 1    
    28   19   39 1    
    29   20   40 1    
    30   21   22 1    
    31   21   41 1    
    32   22   23 ar   
    33   22   32 ar   
    34   23   24 ar   
    35   23   42 1    
    36   24   25 ar   
    37   24   46 1    
    38   25   26 ar   
    39   25   32 ar   
    40   26   27 2    
    41   26   28 ar   
    42   28   29 ar   
    43   28   43 1    
    44   29   30 1    
    45   29   31 ar   
    46   30   44 1    
    47   30   45 1    
    48   31   32 ar   
@<TRIPOS>SUBSTRUCTURE
     1 GTP         1 GROUP             0       ****    0 ROOT    
@<TRIPOS>MOLECULE
GTP
45   47    1
SMALL
USER_CHARGES


@<TRIPOS>ATOM
      1 PG          4.5660   31.3910   21.6350 P.3       1 GTP         0.0000 
      2 O1G         4.6130   31.9070   23.0690 O.co2     1 GTP         0.0000 
      3 O2G         3.8920   32.3190   20.6310 O.co2     1 GTP         0.0000 
      4 O3G         4.1430   30.0120   21.6130 O.co2     1 GTP         0.0000 
      5 O3B         6.1600   31.3600   21.2280 O.3       1 GTP         0.0000 
      6 PB          6.8770   31.2020   19.7450 P.3       1 GTP         0.0000 
      7 O1B         7.0790   29.7090   19.4730 O.co2     1 GTP         0.0000 
      8 O2B         6.1250   31.9700   18.7490 O.co2     1 GTP         0.0000 
      9 O3A         8.2510   31.8900   20.0030 O.3       1 GTP         0.0000 
     10 PA          8.8460   33.2610   19.4110 P.3       1 GTP         0.0000 
     11 O1A         8.8880   33.2560   17.9570 O.co2     1 GTP         0.0000 
     12 O2A         8.1050   34.3980   20.1290 O.co2     1 GTP         0.0000 
     13 O5'        10.4300   33.1530   19.9000 O.3       1 GTP         0.0000 
     14 C5'        10.5490   33.0440   21.3780 C.3       1 GTP         0.0000 
     15 C4'        12.0460   33.6180   21.4740 C.3       1 GTP         0.0000 
     16 O4'        13.0520   32.8300   20.8180 O.3       1 GTP         0.0000 
     17 C3'        12.3070   34.9690   21.0570 C.3       1 GTP         0.0000 
     18 O3'        13.1090   35.6720   21.9710 O.3       1 GTP         0.0000 
     19 C2'        12.8390   34.9710   19.5930 C.3       1 GTP         0.0000 
     20 O2'        13.6720   35.9610   19.3550 O.3       1 GTP         0.0000 
     21 C1'        13.8460   33.6220   19.9270 C.3       1 GTP         0.0000 
     22 N9         14.0010   32.8330   18.6490 N.pl3     1 GTP         0.0000 
     23 C8         12.9340   32.4520   17.8480 C.ar      1 GTP         0.0000 
     24 N7         13.6400   31.7980   16.8990 N.pl3     1 GTP         0.0000 
     25 C5         15.0290   31.8890   17.0010 C.ar      1 GTP         0.0000 
     26 C6         15.8990   31.3940   16.2380 C.ar      1 GTP         0.0000 
     27 O6         15.9820   30.6800   15.1910 O.2       1 GTP         0.0000 
     28 N1         17.2740   31.6280   16.8000 N.pl3     1 GTP         0.0000 
     29 C2         17.3040   32.2950   17.8960 C.ar      1 GTP         0.0000 
     30 N2         18.6770   32.4500   18.4750 N.pl3     1 GTP         0.0000 
     31 N3         16.3840   32.7360   18.7390 N.2       1 GTP         0.0000 
     32 C4         15.2180   32.5170   18.1350 C.ar      1 GTP         0.0000 
     33 H5'         9.7718   33.6593   21.8548 H         1 GTP         0.0000 
     34 H5''       10.4216   31.9939   21.6797 H         1 GTP         0.0000 
     35 H4'        12.2583   33.6282   22.5533 H         1 GTP         0.0000 
     36 H3'        11.3699   35.5332   21.1732 H         1 GTP         0.0000 
     37 HO3'       12.8165   35.7279   23.0299 H         1 GTP         0.0000 
     38 H2'        12.1431   35.1631   18.7630 H         1 GTP         0.0000 
     39 HO2'       13.2830   36.9601   19.1092 H         1 GTP         0.0000 
     40 H1'        14.8453   33.7628   20.3647 H         1 GTP         0.0000 
     41 H8         11.8730   32.6240   17.9510 H         1 GTP         0.0000 
     42 HN1        18.1572   31.2365   16.2739 H         1 GTP         0.0000 
     43 HN21       19.5568   32.1296   17.8977 H         1 GTP         0.0000 
     44 HN22       18.8054   32.8843   19.4775 H         1 GTP         0.0000 
     45 H45        13.1150   31.2389   16.1105 H         1 GTP         0.0000 
@<TRIPOS>BOND
     1    1    2 2    
     2    1    3 1    
     3    1    4 1    
     4    1    5 1    
     5    5    6 1    
     6    6    7 2    
     7    6    8 1    
     8    6    9 1    
     9    9   10 1    
    10   10   11 2    
    11   10   12 1    
    12   10   13 1    
    13   13   14 1    
    14   14   15 1    
    15   14   33 1    
    16   14   34 1    
    17   15   16 1    
    18   15   17 1    
    19   15   35 1    
    20   16   21 1    
    21   17   18 1    
    22   17   19 1    
    23   17   36 1    
    24   18   37 1    
    25   19   20 1    
    26   19   21 1    
    27   19   38 1    
    28   20   39 1    
    29   21   22 1    
    30   21   40 1    
    31   22   23 ar   
    32   22   32 ar   
    33   23   24 ar   
    34   23   41 1    
    35   24   25 ar   
    36   24   45 1    
    37   25   26 ar   
    38   25   32 ar   
    39   26   27 2    
    40   26   28 ar   
    41   28   29 ar   
    42   28   42 1    
    43   29   30 1    
    44   29   31 ar   
    45   30   43 1    
    46   30   44 1    
    47   31   32 ar   
@<TRIPOS>SUBSTRUCTURE
     1 GTP         1 GROUP             0       ****    0 ROOT    
@<TRIPOS>MOLECULE
GTP
46   48    1
SMALL
USER_CHARGES


@<TRIPOS>ATOM
      1 PG          4.5660   31.3910   21.6350 P.3       1 GTP         0.0000 
      2 O1G         4.6130   31.9070   23.0690 O.co2     1 GTP         0.0000 
      3 O2G         3.8920   32.3190   20.6310 O.co2     1 GTP         0.0000 
      4 O3G         4.1430   30.0120   21.6130 O.3       1 GTP         0.0000 
      5 O3B         6.1600   31.3600   21.2280 O.3       1 GTP         0.0000 
      6 PB          6.8770   31.2020   19.7450 P.3       1 GTP         0.0000 
      7 O1B         7.0790   29.7090   19.4730 O.co2     1 GTP         0.0000 
      8 O2B         6.1250   31.9700   18.7490 O.co2     1 GTP         0.0000 
      9 O3A         8.2510   31.8900   20.0030 O.3       1 GTP         0.0000 
     10 PA          8.8460   33.2610   19.4110 P.3       1 GTP         0.0000 
     11 O1A         8.8880   33.2560   17.9570 O.co2     1 GTP         0.0000 
     12 O2A         8.1050   34.3980   20.1290 O.co2     1 GTP         0.0000 
     13 O5'        10.4300   33.1530   19.9000 O.3       1 GTP         0.0000 
     14 C5'        10.5490   33.0440   21.3780 C.3       1 GTP         0.0000 
     15 C4'        12.0460   33.6180   21.4740 C.3       1 GTP         0.0000 
     16 O4'        13.0520   32.8300   20.8180 O.3       1 GTP         0.0000 
     17 C3'        12.3070   34.9690   21.0570 C.3       1 GTP         0.0000 
     18 O3'        13.1090   35.6720   21.9710 O.3       1 GTP         0.0000 
     19 C2'        12.8390   34.9710   19.5930 C.3       1 GTP         0.0000 
     20 O2'        13.6720   35.9610   19.3550 O.3       1 GTP         0.0000 
     21 C1'        13.8460   33.6220   19.9270 C.3       1 GTP         0.0000 
     22 N9         14.0010   32.8330   18.6490 N.pl3     1 GTP         0.0000 
     23 C8         12.9340   32.4520   17.8480 C.ar      1 GTP         0.0000 
     24 N7         13.6400   31.7980   16.8990 N.pl3     1 GTP         0.0000 
     25 C5         15.0290   31.8890   17.0010 C.ar      1 GTP         0.0000 
     26 C6         15.8990   31.3940   16.2380 C.ar      1 GTP         0.0000 
     27 O6         15.9820   30.6800   15.1910 O.2       1 GTP         0.0000 
     28 N1         17.2740   31.6280   16.8000 N.2       1 GTP         0.0000 
     29 C2         17.3040   32.2950   17.8960 C.ar      1 GTP         0.0000 
     30 N2         18.6770   32.4500   18.4750 N.pl3     1 GTP         0.0000 
     31 N3         16.3840   32.7360   18.7390 N.pl3     1 GTP         0.0000 
     32 C4         15.2180   32.5170   18.1350 C.ar      1 GTP         0.0000 
     33 HOG3        3.1013   29.7523   21.8527 H         1 GTP         0.0000 
     34 H5'         9.7718   33.6593   21.8548 H         1 GTP         0.0000 
     35 H5''       10.4216   31.9939   21.6797 H         1 GTP         0.0000 
     36 H4'        12.2583   33.6282   22.5533 H         1 GTP         0.0000 
     37 H3'        11.3699   35.5332   21.1732 H         1 GTP         0.0000 
     38 HO3'       12.8165   35.7279   23.0299 H         1 GTP         0.0000 
     39 H2'        12.1431   35.1631   18.7630 H         1 GTP         0.0000 
     40 HO2'       13.2830   36.9601   19.1092 H         1 GTP         0.0000 
     41 H1'        14.8453   33.7628   20.3647 H         1 GTP         0.0000 
     42 H8         11.8730   32.6240   17.9510 H         1 GTP         0.0000 
     43 HN21       19.5568   32.1296   17.8977 H         1 GTP         0.0000 
     44 HN22       18.8054   32.8843   19.4775 H         1 GTP         0.0000 
     45 H45        16.6849   33.1690   19.7044 H         1 GTP         0.0000 
     46 H46        13.1150   31.2389   16.1105 H         1 GTP         0.0000 
@<TRIPOS>BOND
     1    1    2 2    
     2    1    3 1    
     3    1    4 1    
     4    1    5 1    
     5    4   33 1    
     6    5    6 1    
     7    6    7 2    
     8    6    8 1    
     9    6    9 1    
    10    9   10 1    
    11   10   11 2    
    12   10   12 1    
    13   10   13 1    
    14   13   14 1    
    15   14   15 1    
    16   14   34 1    
    17   14   35 1    
    18   15   16 1    
    19   15   17 1    
    20   15   36 1    
    21   16   21 1    
    22   17   18 1    
    23   17   19 1    
    24   17   37 1    
    25   18   38 1    
    26   19   20 1    
    27   19   21 1    
    28   19   39 1    
    29   20   40 1    
    30   21   22 1    
    31   21   41 1    
    32   22   23 ar   
    33   22   32 ar   
    34   23   24 ar   
    35   23   42 1    
    36   24   25 ar   
    37   24   46 1    
    38   25   26 ar   
    39   25   32 ar   
    40   26   27 2    
    41   26   28 ar   
    42   28   29 ar   
    43   29   30 1    
    44   29   31 ar   
    45   30   43 1    
    46   30   44 1    
    47   31   32 ar   
    48   31   45 1    
@<TRIPOS>SUBSTRUCTURE
     1 GTP         1 GROUP             0       ****    0 ROOT    
@<TRIPOS>MOLECULE
GTP
49   51    1
SMALL
USER_CHARGES


@<TRIPOS>ATOM
      1 PG          4.5660   31.3910   21.6350 P.3       1 GTP         0.0000 
      2 O1G         4.6130   31.9070   23.0690 O.2       1 GTP         0.0000 
      3 O2G         3.8920   32.3190   20.6310 O.3       1 GTP         0.0000 
      4 O3G         4.1430   30.0120   21.6130 O.3       1 GTP         0.0000 
      5 O3B         6.1600   31.3600   21.2280 O.3       1 GTP         0.0000 
      6 PB          6.8770   31.2020   19.7450 P.3       1 GTP         0.0000 
      7 O1B         7.0790   29.7090   19.4730 O.2       1 GTP         0.0000 
      8 O2B         6.1250   31.9700   18.7490 O.3       1 GTP         0.0000 
      9 O3A         8.2510   31.8900   20.0030 O.3       1 GTP         0.0000 
     10 PA          8.8460   33.2610   19.4110 P.3       1 GTP         0.0000 
     11 O1A         8.8880   33.2560   17.9570 O.2       1 GTP         0.0000 
     12 O2A         8.1050   34.3980   20.1290 O.3       1 GTP         0.0000 
     13 O5'        10.4300   33.1530   19.9000 O.3       1 GTP         0.0000 
     14 C5'        10.5490   33.0440   21.3780 C.3       1 GTP         0.0000 
     15 C4'        12.0460   33.6180   21.4740 C.3       1 GTP         0.0000 
     16 O4'        13.0520   32.8300   20.8180 O.3       1 GTP         0.0000 
     17 C3'        12.3070   34.9690   21.0570 C.3       1 GTP         0.0000 
     18 O3'        13.1090   35.6720   21.9710 O.3       1 GTP         0.0000 
     19 C2'        12.8390   34.9710   19.5930 C.3       1 GTP         0.0000 
     20 O2'        13.6720   35.9610   19.3550 O.3       1 GTP         0.0000 
     21 C1'        13.8460   33.6220   19.9270 C.3       1 GTP         0.0000 
     22 N9         14.0010   32.8330   18.6490 N.pl3     1 GTP         0.0000 
     23 C8         12.9340   32.4520   17.8480 C.ar      1 GTP         0.0000 
     24 N7         13.6400   31.7980   16.8990 N.pl3     1 GTP         0.0000 
     25 C5         15.0290   31.8890   17.0010 C.ar      1 GTP         0.0000 
     26 C6         15.8990   31.3940   16.2380 C.ar      1 GTP         0.0000 
     27 O6         15.9820   30.6800   15.1910 O.2       1 GTP         0.0000 
     28 N1         17.2740   31.6280   16.8000 N.pl3     1 GTP         0.0000 
     29 C2         17.3040   32.2950   17.8960 C.ar      1 GTP         0.0000 
     30 N2         18.6770   32.4500   18.4750 N.pl3     1 GTP         0.0000 
     31 N3         16.3840   32.7360   18.7390 N.2       1 GTP         0.0000 
     32 C4         15.2180   32.5170   18.1350 C.ar      1 GTP         0.0000 
     33 HOG2        2.8098   32.5054   20.6948 H         1 GTP         0.0000 
     34 HOG3        3.1013   29.7523   21.8527 H         1 GTP         0.0000 
     35 HOB2        5.1247   31.6353   18.4370 H         1 GTP         0.0000 
     36 HOA2        7.0451   34.5904   19.9065 H         1 GTP         0.0000 
     37 H5'         9.7718   33.6593   21.8548 H         1 GTP         0.0000 
     38 H5''       10.4216   31.9939   21.6797 H         1 GTP         0.0000 
     39 H4'        12.2583   33.6282   22.5533 H         1 GTP         0.0000 
     40 H3'        11.3699   35.5332   21.1732 H         1 GTP         0.0000 
     41 HO3'       12.8165   35.7279   23.0299 H         1 GTP         0.0000 
     42 H2'        12.1431   35.1631   18.7630 H         1 GTP         0.0000 
     43 HO2'       13.2830   36.9601   19.1092 H         1 GTP         0.0000 
     44 H1'        14.8453   33.7628   20.3647 H         1 GTP         0.0000 
     45 H8         11.8730   32.6240   17.9510 H         1 GTP         0.0000 
     46 HN1        18.1572   31.2365   16.2739 H         1 GTP         0.0000 
     47 HN21       19.5568   32.1296   17.8977 H         1 GTP         0.0000 
     48 HN22       18.8054   32.8843   19.4775 H         1 GTP         0.0000 
     49 H49        13.1150   31.2389   16.1105 H         1 GTP         0.0000 
@<TRIPOS>BOND
     1    1    2 2    
     2    1    3 1    
     3    1    4 1    
     4    1    5 1    
     5    3   33 1    
     6    4   34 1    
     7    5    6 1    
     8    6    7 2    
     9    6    8 1    
    10    6    9 1    
    11    8   35 1    
    12    9   10 1    
    13   10   11 2    
    14   10   12 1    
    15   10   13 1    
    16   12   36 1    
    17   13   14 1    
    18   14   15 1    
    19   14   37 1    
    20   14   38 1    
    21   15   16 1    
    22   15   17 1    
    23   15   39 1    
    24   16   21 1    
    25   17   18 1    
    26   17   19 1    
    27   17   40 1    
    28   18   41 1    
    29   19   20 1    
    30   19   21 1    
    31   19   42 1    
    32   20   43 1    
    33   21   22 1    
    34   21   44 1    
    35   22   23 ar   
    36   22   32 ar   
    37   23   24 ar   
    38   23   45 1    
    39   24   25 ar   
    40   24   49 1    
    41   25   26 ar   
    42   25   32 ar   
    43   26   27 2    
    44   26   28 ar   
    45   28   29 ar   
    46   28   46 1    
    47   29   30 1    
    48   29   31 ar   
    49   30   47 1    
    50   30   48 1    
    51   31   32 ar   
@<TRIPOS>SUBSTRUCTURE
     1 GTP         1 GROUP             0       ****    0 ROOT    
@<TRIPOS>MOLECULE
GTP
46   48    1
SMALL
USER_CHARGES


@<TRIPOS>ATOM
      1 PG          4.5660   31.3910   21.6350 P.3       1 GTP         0.0000 
      2 O1G         4.6130   31.9070   23.0690 O.co2     1 GTP         0.0000 
      3 O2G         3.8920   32.3190   20.6310 O.co2     1 GTP         0.0000 
      4 O3G         4.1430   30.0120   21.6130 O.co2     1 GTP         0.0000 
      5 O3B         6.1600   31.3600   21.2280 O.3       1 GTP         0.0000 
      6 PB          6.8770   31.2020   19.7450 P.3       1 GTP         0.0000 
      7 O1B         7.0790   29.7090   19.4730 O.co2     1 GTP         0.0000 
      8 O2B         6.1250   31.9700   18.7490 O.co2     1 GTP         0.0000 
      9 O3A         8.2510   31.8900   20.0030 O.3       1 GTP         0.0000 
     10 PA          8.8460   33.2610   19.4110 P.3       1 GTP         0.0000 
     11 O1A         8.8880   33.2560   17.9570 O.2       1 GTP         0.0000 
     12 O2A         8.1050   34.3980   20.1290 O.3       1 GTP         0.0000 
     13 O5'        10.4300   33.1530   19.9000 O.3       1 GTP         0.0000 
     14 C5'        10.5490   33.0440   21.3780 C.3       1 GTP         0.0000 
     15 C4'        12.0460   33.6180   21.4740 C.3       1 GTP         0.0000 
     16 O4'        13.0520   32.8300   20.8180 O.3       1 GTP         0.0000 
     17 C3'        12.3070   34.9690   21.0570 C.3       1 GTP         0.0000 
     18 O3'        13.1090   35.6720   21.9710 O.3       1 GTP         0.0000 
     19 C2'        12.8390   34.9710   19.5930 C.3       1 GTP         0.0000 
     20 O2'        13.6720   35.9610   19.3550 O.3       1 GTP         0.0000 
     21 C1'        13.8460   33.6220   19.9270 C.3       1 GTP         0.0000 
     22 N9         14.0010   32.8330   18.6490 N.pl3     1 GTP         0.0000 
     23 C8         12.9340   32.4520   17.8480 C.ar      1 GTP         0.0000 
     24 N7         13.6400   31.7980   16.8990 N.pl3     1 GTP         0.0000 
     25 C5         15.0290   31.8890   17.0010 C.ar      1 GTP         0.0000 
     26 C6         15.8990   31.3940   16.2380 C.ar      1 GTP         0.0000 
     27 O6         15.9820   30.6800   15.1910 O.2       1 GTP         0.0000 
     28 N1         17.2740   31.6280   16.8000 N.pl3     1 GTP         0.0000 
     29 C2         17.3040   32.2950   17.8960 C.ar      1 GTP         0.0000 
     30 N2         18.6770   32.4500   18.4750 N.pl3     1 GTP         0.0000 
     31 N3         16.3840   32.7360   18.7390 N.2       1 GTP         0.0000 
     32 C4         15.2180   32.5170   18.1350 C.ar      1 GTP         0.0000 
     33 HOA2        7.0451   34.5904   19.9065 H         1 GTP         0.0000 
     34 H5'         9.7718   33.6593   21.8548 H         1 GTP         0.0000 
     35 H5''       10.4216   31.9939   21.6797 H         1 GTP         0.0000 
     36 H4'        12.2583   33.6282   22.5533 H         1 GTP         0.0000 
     37 H3'        11.3699   35.5332   21.1732 H         1 GTP         0.0000 
     38 HO3'       12.8165   35.7279   23.0299 H         1 GTP         0.0000 
     39 H2'        12.1431   35.1631   18.7630 H         1 GTP         0.0000 
     40 HO2'       13.2830   36.9601   19.1092 H         1 GTP         0.0000 
     41 H1'        14.8453   33.7628   20.3647 H         1 GTP         0.0000 
     42 H8         11.8730   32.6240   17.9510 H         1 GTP         0.0000 
     43 HN1        18.1572   31.2365   16.2739 H         1 GTP         0.0000 
     44 HN21       19.5568   32.1296   17.8977 H         1 GTP         0.0000 
     45 HN22       18.8054   32.8843   19.4775 H         1 GTP         0.0000 
     46 H46        13.1150   31.2389   16.1105 H         1 GTP         0.0000 
@<TRIPOS>BOND
     1    1    2 2    
     2    1    3 1    
     3    1    4 1    
     4    1    5 1    
     5    5    6 1    
     6    6    7 2    
     7    6    8 1    
     8    6    9 1    
     9    9   10 1    
    10   10   11 2    
    11   10   12 1    
    12   10   13 1    
    13   12   33 1    
    14   13   14 1    
    15   14   15 1    
    16   14   34 1    
    17   14   35 1    
    18   15   16 1    
    19   15   17 1    
    20   15   36 1    
    21   16   21 1    
    22   17   18 1    
    23   17   19 1    
    24   17   37 1    
    25   18   38 1    
    26   19   20 1    
    27   19   21 1    
    28   19   39 1    
    29   20   40 1    
    30   21   22 1    
    31   21   41 1    
    32   22   23 ar   
    33   22   32 ar   
    34   23   24 ar   
    35   23   42 1    
    36   24   25 ar   
    37   24   46 1    
    38   25   26 ar   
    39   25   32 ar   
    40   26   27 2    
    41   26   28 ar   
    42   28   29 ar   
    43   28   43 1    
    44   29   30 1    
    45   29   31 ar   
    46   30   44 1    
    47   30   45 1    
    48   31   32 ar   
@<TRIPOS>SUBSTRUCTURE
     1 GTP         1 GROUP             0       ****    0 ROOT    
@<TRIPOS>MOLECULE
GTP
46   48    1
SMALL
USER_CHARGES


@<TRIPOS>ATOM
      1 PG          4.5660   31.3910   21.6350 P.3       1 GTP         0.0000 
      2 O1G         4.6130   31.9070   23.0690 O.co2     1 GTP         0.0000 
      3 O2G         3.8920   32.3190   20.6310 O.co2     1 GTP         0.0000 
      4 O3G         4.1430   30.0120   21.6130 O.3       1 GTP         0.0000 
      5 O3B         6.1600   31.3600   21.2280 O.3       1 GTP         0.0000 
      6 PB          6.8770   31.2020   19.7450 P.3       1 GTP         0.0000 
      7 O1B         7.0790   29.7090   19.4730 O.co2     1 GTP         0.0000 
      8 O2B         6.1250   31.9700   18.7490 O.co2     1 GTP         0.0000 
      9 O3A         8.2510   31.8900   20.0030 O.3       1 GTP         0.0000 
     10 PA          8.8460   33.2610   19.4110 P.3       1 GTP         0.0000 
     11 O1A         8.8880   33.2560   17.9570 O.co2     1 GTP         0.0000 
     12 O2A         8.1050   34.3980   20.1290 O.co2     1 GTP         0.0000 
     13 O5'        10.4300   33.1530   19.9000 O.3       1 GTP         0.0000 
     14 C5'        10.5490   33.0440   21.3780 C.3       1 GTP         0.0000 
     15 C4'        12.0460   33.6180   21.4740 C.3       1 GTP         0.0000 
     16 O4'        13.0520   32.8300   20.8180 O.3       1 GTP         0.0000 
     17 C3'        12.3070   34.9690   21.0570 C.3       1 GTP         0.0000 
     18 O3'        13.1090   35.6720   21.9710 O.3       1 GTP         0.0000 
     19 C2'        12.8390   34.9710   19.5930 C.3       1 GTP         0.0000 
     20 O2'        13.6720   35.9610   19.3550 O.3       1 GTP         0.0000 
     21 C1'        13.8460   33.6220   19.9270 C.3       1 GTP         0.0000 
     22 N9         14.0010   32.8330   18.6490 N.pl3     1 GTP         0.0000 
     23 C8         12.9340   32.4520   17.8480 C.ar      1 GTP         0.0000 
     24 N7         13.6400   31.7980   16.8990 N.2       1 GTP         0.0000 
     25 C5         15.0290   31.8890   17.0010 C.ar      1 GTP         0.0000 
     26 C6         15.8990   31.3940   16.2380 C.ar      1 GTP         0.0000 
     27 O6         15.9820   30.6800   15.1910 O.2       1 GTP         0.0000 
     28 N1         17.2740   31.6280   16.8000 N.pl3     1 GTP         0.0000 
     29 C2         17.3040   32.2950   17.8960 C.ar      1 GTP         0.0000 
     30 N2         18.6770   32.4500   18.4750 N.pl3     1 GTP         0.0000 
     31 N3         16.3840   32.7360   18.7390 N.pl3     1 GTP         0.0000 
     32 C4         15.2180   32.5170   18.1350 C.ar      1 GTP         0.0000 
     33 HOG3        3.1013   29.7523   21.8527 H         1 GTP         0.0000 
     34 H5'         9.7718   33.6593   21.8548 H         1 GTP         0.0000 
     35 H5''       10.4216   31.9939   21.6797 H         1 GTP         0.0000 
     36 H4'        12.2583   33.6282   22.5533 H         1 GTP         0.0000 
     37 H3'        11.3699   35.5332   21.1732 H         1 GTP         0.0000 
     38 HO3'       12.8165   35.7279   23.0299 H         1 GTP         0.0000 
     39 H2'        12.1431   35.1631   18.7630 H         1 GTP         0.0000 
     40 HO2'       13.2830   36.9601   19.1092 H         1 GTP         0.0000 
     41 H1'        14.8453   33.7628   20.3647 H         1 GTP         0.0000 
     42 H8         11.8730   32.6240   17.9510 H         1 GTP         0.0000 
     43 HN1        18.1572   31.2365   16.2739 H         1 GTP         0.0000 
     44 HN21       19.5568   32.1296   17.8977 H         1 GTP         0.0000 
     45 HN22       18.8054   32.8843   19.4775 H         1 GTP         0.0000 
     46 H46        16.6849   33.1690   19.7044 H         1 GTP         0.0000 
@<TRIPOS>BOND
     1    1    2 2    
     2    1    3 1    
     3    1    4 1    
     4    1    5 1    
     5    4   33 1    
     6    5    6 1    
     7    6    7 2    
     8    6    8 1    
     9    6    9 1    
    10    9   10 1    
    11   10   11 2    
    12   10   12 1    
    13   10   13 1    
    14   13   14 1    
    15   14   15 1    
    16   14   34 1    
    17   14   35 1    
    18   15   16 1    
    19   15   17 1    
    20   15   36 1    
    21   16   21 1    
    22   17   18 1    
    23   17   19 1    
    24   17   37 1    
    25   18   38 1    
    26   19   20 1    
    27   19   21 1    
    28   19   39 1    
    29   20   40 1    
    30   21   22 1    
    31   21   41 1    
    32   22   23 ar   
    33   22   32 ar   
    34   23   24 ar   
    35   23   42 1    
    36   24   25 ar   
    37   25   26 ar   
    38   25   32 ar   
    39   26   27 2    
    40   26   28 ar   
    41   28   29 ar   
    42   28   43 1    
    43   29   30 1    
    44   29   31 ar   
    45   30   44 1    
    46   30   45 1    
    47   31   32 ar   
    48   31   46 1    
@<TRIPOS>SUBSTRUCTURE
     1 GTP         1 GROUP             0       ****    0 ROOT    
