@<TRIPOS>MOLECULE
[[5-(2-amino-6-oxo-7,8-dihydro-1~{H}-purin-8-ylium-9-yl)-3,4-dihydroxy-tetrahydrofuran-2-yl]methoxy-hydroxy-phosphoryl] phosphono hydrogen phosphate
   49    51     1     0     0
SMALL
USER_CHARGES

@<TRIPOS>ATOM
      1 PG         -2.5007   -0.4413   -3.6730 P.3       1 GTP         1.7996
      2 O1G        -1.5390    0.5349   -4.2841 O.2       1 GTP        -0.8112
      3 O2G        -2.8968   -0.1494   -2.1337 O.3       1 GTP        -0.7934
      4 O3G        -3.9320   -0.5517   -4.4158 O.3       1 GTP        -0.7934
      5 O3B        -1.9825   -1.9718   -3.6480 O.3       1 GTP        -0.8067
      6 PB         -0.6931   -2.6614   -2.9611 P.3       1 GTP         1.9429
      7 O1B        -0.6290   -2.5182   -1.4690 O.2       1 GTP        -0.8303
      8 O2B        -0.7304   -4.1826   -3.5067 O.3       1 GTP        -0.7951
      9 O3A         0.5552   -2.0432   -3.7774 O.3       1 GTP        -0.7994
     10 PA          2.1468   -2.2811   -3.6362 P.3       1 GTP         1.7871
     11 O1A         2.5767   -3.7041   -3.8445 O.2       1 GTP        -0.8044
     12 O2A         2.7731   -1.2324   -4.6970 O.3       1 GTP        -0.8076
     13 O5'         2.5234   -1.6624   -2.1893 O.3       1 GTP        -0.5620
     14 C5'         2.2816   -0.2918   -1.9206 C.3       1 GTP         0.1570
     15 C4'         2.7248    0.0226   -0.4980 C.3       1 GTP         0.1395
     16 O4'         2.4697    1.4219   -0.2462 O.3       1 GTP        -0.3978
     17 C3'         1.9404   -0.7419    0.5596 C.3       1 GTP         0.0953
     18 O3'         2.7418   -0.8086    1.7389 O.3       1 GTP        -0.5639
     19 C2'         0.7477    0.1630    0.7858 C.3       1 GTP         0.0640
     20 O2'         0.1373   -0.0577    2.0407 O.3       1 GTP        -0.5724
     21 C1'         1.3733    1.5427    0.6747 C.3       1 GTP         0.4182
     22 N9          0.4520    2.5240    0.1767 N.pl3     1 GTP        -0.4563
     23 C8          0.2203    2.8205   -1.0970 C.ar      1 GTP         0.2386
     24 N7         -0.6947    3.7752   -1.2304 N.pl3     1 GTP        -0.4432
     25 C5         -1.0607    4.0987    0.0476 C.ar      1 GTP        -0.2050
     26 C6         -2.0310    5.0839    0.5029 C.ar      1 GTP         0.7599
     27 O6         -2.6779    5.7867   -0.2609 O.2       1 GTP        -0.5606
     28 N1         -2.1030    5.0975    1.8948 N.pl3     1 GTP        -0.5020
     29 C2         -1.3422    4.2721    2.7403 C.ar      1 GTP         0.7674
     30 N2         -1.5624    4.4419    4.0823 N.pl3     1 GTP        -0.9014
     31 N3         -0.4796    3.3981    2.2792 N.2       1 GTP        -0.6718
     32 C4         -0.3754    3.3496    0.9208 C.ar      1 GTP         0.3897
     33 HOG2       -2.1889   -0.1381   -1.4549 H         1 GTP         0.5007
     34 HOG3       -4.4954    0.2485   -4.4826 H         1 GTP         0.5007
     35 HOB2        0.0168   -4.7815   -3.2945 H         1 GTP         0.5193
     36 HOA2        3.7478   -1.1363   -4.7496 H         1 GTP         0.4890
     37 H5'         2.8429    0.3147   -2.6388 H         1 GTP         0.0511
     38 H5''        1.2125   -0.0898   -2.0417 H         1 GTP         0.0511
     39 H4'         3.8049   -0.1388   -0.4009 H         1 GTP         0.1554
     40 H3'         1.6783   -1.7629    0.2715 H         1 GTP         0.0796
     41 HO3'        2.2232   -1.2979    2.3953 H         1 GTP         0.4259
     42 H2'        -0.0011    0.0027    0.0003 H         1 GTP         0.0621
     43 HO2'       -0.6141    0.5574    2.1082 H         1 GTP         0.4287
     44 H1'         1.7826    1.9024    1.6451 H         1 GTP         0.1525
     45 H8          0.7110    2.3472   -1.9295 H         1 GTP         0.2675
     46 HN1        -2.7504    5.7495    2.3282 H         1 GTP         0.3601
     47 HN21       -1.0467    3.8796    4.7190 H         1 GTP         0.4770
     48 HN22       -2.2294    5.1209    4.3680 H         1 GTP         0.4770
     49 H49        -1.0382    4.1687   -2.0954 H         1 GTP         0.5213
@<TRIPOS>BOND
     1    1    2 2
     2    1    3 1
     3    1    4 1
     4    1    5 1
     5    3   33 1
     6    4   34 1
     7    5    6 1
     8    6    7 2
     9    6    8 1
    10    6    9 1
    11    8   35 1
    12    9   10 1
    13   10   11 2
    14   10   12 1
    15   10   13 1
    16   12   36 1
    17   13   14 1
    18   14   15 1
    19   14   37 1
    20   14   38 1
    21   15   16 1
    22   15   17 1
    23   15   39 1
    24   16   21 1
    25   17   18 1
    26   17   19 1
    27   17   40 1
    28   18   41 1
    29   19   20 1
    30   19   21 1
    31   19   42 1
    32   20   43 1
    33   21   22 1
    34   21   44 1
    35   22   23 ar
    36   22   32 ar
    37   23   24 ar
    38   23   45 1
    39   24   25 ar
    40   24   49 1
    41   25   26 ar
    42   25   32 ar
    43   26   27 2
    44   26   28 ar
    45   28   29 ar
    46   28   46 1
    47   29   30 1
    48   29   31 ar
    49   30   47 1
    50   30   48 1
    51   31   32 ar
@<TRIPOS>SUBSTRUCTURE
     1 GTP         1 GROUP 0 A     ****
@<TRIPOS>MOLECULE
[[5-(2-amino-6-oxo-7,8-dihydro-1~{H}-purin-8-ylium-9-yl)-3,4-dihydroxy-tetrahydrofuran-2-yl]methoxy-hydroxy-phosphoryl] phosphono hydrogen phosphate
   49    51     1     0     0
SMALL
USER_CHARGES

@<TRIPOS>ATOM
      1 PG          6.1569   -2.5731   -2.3715 P.3       1 GTP         1.7996
      2 O1G         6.1101   -4.0727   -2.3542 O.2       1 GTP        -0.8112
      3 O2G         6.1041   -1.8634   -0.9206 O.3       1 GTP        -0.7934
      4 O3G         7.4752   -1.9349   -3.0552 O.3       1 GTP        -0.7934
      5 O3B         4.9480   -1.8706   -3.1819 O.3       1 GTP        -0.8067
      6 PB          4.4843   -1.9721   -4.7262 P.3       1 GTP         1.9429
      7 O1B         5.5231   -1.5423   -5.7197 O.2       1 GTP        -0.8303
      8 O2B         3.9748   -3.4987   -4.8783 O.3       1 GTP        -0.7951
      9 O3A         3.0954   -1.1498   -4.7662 O.3       1 GTP        -0.7994
     10 PA          2.7556    0.3903   -4.4163 P.3       1 GTP         1.7871
     11 O1A         3.4961    1.3896   -5.2568 O.2       1 GTP        -0.8044
     12 O2A         1.1459    0.4566   -4.5634 O.3       1 GTP        -0.8076
     13 O5'         3.0192    0.5132   -2.8246 O.3       1 GTP        -0.5620
     14 C5'         2.2816   -0.2918   -1.9206 C.3       1 GTP         0.1570
     15 C4'         2.7248    0.0226   -0.4980 C.3       1 GTP         0.1395
     16 O4'         2.4697    1.4219   -0.2462 O.3       1 GTP        -0.3978
     17 C3'         1.9404   -0.7419    0.5596 C.3       1 GTP         0.0953
     18 O3'         2.7418   -0.8086    1.7389 O.3       1 GTP        -0.5639
     19 C2'         0.7477    0.1630    0.7858 C.3       1 GTP         0.0640
     20 O2'         0.1373   -0.0577    2.0407 O.3       1 GTP        -0.5724
     21 C1'         1.3733    1.5427    0.6747 C.3       1 GTP         0.4182
     22 N9          0.4520    2.5240    0.1767 N.pl3     1 GTP        -0.4563
     23 C8          0.2203    2.8205   -1.0970 C.ar      1 GTP         0.2386
     24 N7         -0.6947    3.7752   -1.2304 N.pl3     1 GTP        -0.4432
     25 C5         -1.0607    4.0987    0.0476 C.ar      1 GTP        -0.2050
     26 C6         -2.0310    5.0839    0.5029 C.ar      1 GTP         0.7599
     27 O6         -2.6779    5.7867   -0.2609 O.2       1 GTP        -0.5606
     28 N1         -2.1030    5.0975    1.8948 N.pl3     1 GTP        -0.5020
     29 C2         -1.3422    4.2721    2.7403 C.ar      1 GTP         0.7674
     30 N2         -1.5624    4.4419    4.0823 N.pl3     1 GTP        -0.9014
     31 N3         -0.4796    3.3981    2.2792 N.2       1 GTP        -0.6718
     32 C4         -0.3754    3.3496    0.9208 C.ar      1 GTP         0.3897
     33 HOG2        5.3253   -2.0173   -0.3445 H         1 GTP         0.5007
     34 HOG3        7.6686   -2.1386   -3.9950 H         1 GTP         0.5007
     35 HOB2        4.6261   -4.2272   -4.7930 H         1 GTP         0.5193
     36 HOA2        0.6824    1.2891   -4.3308 H         1 GTP         0.4890
     37 H5'         1.2150   -0.0785   -2.0448 H         1 GTP         0.0511
     38 H5''        2.4641   -1.3458   -2.1540 H         1 GTP         0.0511
     39 H4'         3.8049   -0.1388   -0.4009 H         1 GTP         0.1554
     40 H3'         1.6783   -1.7629    0.2715 H         1 GTP         0.0796
     41 HO3'        2.2232   -1.2979    2.3953 H         1 GTP         0.4259
     42 H2'        -0.0011    0.0027    0.0003 H         1 GTP         0.0621
     43 HO2'       -0.6141    0.5574    2.1082 H         1 GTP         0.4287
     44 H1'         1.7826    1.9024    1.6451 H         1 GTP         0.1525
     45 H8          0.7110    2.3472   -1.9295 H         1 GTP         0.2675
     46 HN1        -2.7504    5.7495    2.3282 H         1 GTP         0.3601
     47 HN21       -1.0467    3.8796    4.7190 H         1 GTP         0.4770
     48 HN22       -2.2294    5.1209    4.3680 H         1 GTP         0.4770
     49 H49        -1.0382    4.1687   -2.0954 H         1 GTP         0.5213
@<TRIPOS>BOND
     1    1    2 2
     2    1    3 1
     3    1    4 1
     4    1    5 1
     5    3   33 1
     6    4   34 1
     7    5    6 1
     8    6    7 2
     9    6    8 1
    10    6    9 1
    11    8   35 1
    12    9   10 1
    13   10   11 2
    14   10   12 1
    15   10   13 1
    16   12   36 1
    17   13   14 1
    18   14   15 1
    19   14   37 1
    20   14   38 1
    21   15   16 1
    22   15   17 1
    23   15   39 1
    24   16   21 1
    25   17   18 1
    26   17   19 1
    27   17   40 1
    28   18   41 1
    29   19   20 1
    30   19   21 1
    31   19   42 1
    32   20   43 1
    33   21   22 1
    34   21   44 1
    35   22   23 ar
    36   22   32 ar
    37   23   24 ar
    38   23   45 1
    39   24   25 ar
    40   24   49 1
    41   25   26 ar
    42   25   32 ar
    43   26   27 2
    44   26   28 ar
    45   28   29 ar
    46   28   46 1
    47   29   30 1
    48   29   31 ar
    49   30   47 1
    50   30   48 1
    51   31   32 ar
@<TRIPOS>SUBSTRUCTURE
     1 GTP         1 GROUP 0 A     ****
@<TRIPOS>MOLECULE
[[5-(2-amino-6-oxo-7,8-dihydro-1~{H}-purin-8-ylium-9-yl)-3,4-dihydroxy-tetrahydrofuran-2-yl]methoxy-hydroxy-phosphoryl] phosphono hydrogen phosphate
   49    51     1     0     0
SMALL
USER_CHARGES

@<TRIPOS>ATOM
      1 PG         -2.5007   -0.4413   -3.6730 P.3       1 GTP         1.7996
      2 O1G        -2.7943    0.1419   -2.3222 O.2       1 GTP        -0.8112
      3 O2G        -3.7517   -0.4807   -4.6953 O.3       1 GTP        -0.7934
      4 O3G        -1.3503    0.3208   -4.5147 O.3       1 GTP        -0.7934
      5 O3B        -1.9825   -1.9718   -3.6480 O.3       1 GTP        -0.8067
      6 PB         -0.6931   -2.6614   -2.9611 P.3       1 GTP         1.9429
      7 O1B        -0.6290   -2.5182   -1.4690 O.2       1 GTP        -0.8303
      8 O2B        -0.7304   -4.1826   -3.5067 O.3       1 GTP        -0.7951
      9 O3A         0.5552   -2.0432   -3.7774 O.3       1 GTP        -0.7994
     10 PA          2.1468   -2.2811   -3.6362 P.3       1 GTP         1.7871
     11 O1A         2.5767   -3.7041   -3.8445 O.2       1 GTP        -0.8044
     12 O2A         2.7731   -1.2324   -4.6970 O.3       1 GTP        -0.8076
     13 O5'         2.5234   -1.6624   -2.1893 O.3       1 GTP        -0.5620
     14 C5'         2.2816   -0.2918   -1.9206 C.3       1 GTP         0.1570
     15 C4'         2.7248    0.0226   -0.4980 C.3       1 GTP         0.1395
     16 O4'         2.4697    1.4219   -0.2462 O.3       1 GTP        -0.3978
     17 C3'         1.9404   -0.7419    0.5596 C.3       1 GTP         0.0953
     18 O3'         2.7418   -0.8086    1.7389 O.3       1 GTP        -0.5639
     19 C2'         0.7477    0.1630    0.7858 C.3       1 GTP         0.0640
     20 O2'         0.1373   -0.0577    2.0407 O.3       1 GTP        -0.5724
     21 C1'         1.3733    1.5427    0.6747 C.3       1 GTP         0.4182
     22 N9          0.4520    2.5240    0.1767 N.pl3     1 GTP        -0.4563
     23 C8         -0.2009    2.4849   -0.9792 C.ar      1 GTP         0.2386
     24 N7         -0.9840    3.5454   -1.1481 N.pl3     1 GTP        -0.4432
     25 C5         -0.8090    4.3005   -0.0206 C.ar      1 GTP        -0.2050
     26 C6         -1.4206    5.5724    0.3362 C.ar      1 GTP         0.7599
     27 O6         -2.2199    6.1544   -0.3836 O.2       1 GTP        -0.5606
     28 N1         -0.9680    6.0043    1.5817 N.pl3     1 GTP        -0.5020
     29 C2         -0.0474    5.3055    2.3814 C.ar      1 GTP         0.7674
     30 N2          0.2680    5.9024    3.5740 N.pl3     1 GTP        -0.9014
     31 N3          0.4755    4.1601    2.0138 N.2       1 GTP        -0.6718
     32 C4          0.0611    3.6981    0.8001 C.ar      1 GTP         0.3897
     33 HOG2       -4.1854    0.3619   -4.9482 H         1 GTP         0.5007
     34 HOG3       -0.4470    0.3814   -4.1372 H         1 GTP         0.5007
     35 HOB2        0.0168   -4.7815   -3.2945 H         1 GTP         0.5193
     36 HOA2        3.7478   -1.1363   -4.7496 H         1 GTP         0.4890
     37 H5'         2.8429    0.3147   -2.6388 H         1 GTP         0.0511
     38 H5''        1.2125   -0.0898   -2.0417 H         1 GTP         0.0511
     39 H4'         3.8049   -0.1388   -0.4009 H         1 GTP         0.1554
     40 H3'         1.6783   -1.7629    0.2715 H         1 GTP         0.0796
     41 HO3'        2.2232   -1.2979    2.3953 H         1 GTP         0.4259
     42 H2'        -0.0011    0.0027    0.0003 H         1 GTP         0.0621
     43 HO2'       -0.1563   -0.9855    2.0596 H         1 GTP         0.4287
     44 H1'         1.7826    1.9024    1.6451 H         1 GTP         0.1525
     45 H8         -0.1126    1.6906   -1.6997 H         1 GTP         0.2675
     46 HN1        -1.3285    6.8855    1.9361 H         1 GTP         0.3601
     47 HN21       -0.1625    6.7706    3.7945 H         1 GTP         0.4770
     48 HN22        0.9153    5.4448    4.1733 H         1 GTP         0.4770
     49 H49        -1.5768    3.7405   -1.9429 H         1 GTP         0.5213
@<TRIPOS>BOND
     1    1    2 2
     2    1    3 1
     3    1    4 1
     4    1    5 1
     5    3   33 1
     6    4   34 1
     7    5    6 1
     8    6    7 2
     9    6    8 1
    10    6    9 1
    11    8   35 1
    12    9   10 1
    13   10   11 2
    14   10   12 1
    15   10   13 1
    16   12   36 1
    17   13   14 1
    18   14   15 1
    19   14   37 1
    20   14   38 1
    21   15   16 1
    22   15   17 1
    23   15   39 1
    24   16   21 1
    25   17   18 1
    26   17   19 1
    27   17   40 1
    28   18   41 1
    29   19   20 1
    30   19   21 1
    31   19   42 1
    32   20   43 1
    33   21   22 1
    34   21   44 1
    35   22   23 ar
    36   22   32 ar
    37   23   24 ar
    38   23   45 1
    39   24   25 ar
    40   24   49 1
    41   25   26 ar
    42   25   32 ar
    43   26   27 2
    44   26   28 ar
    45   28   29 ar
    46   28   46 1
    47   29   30 1
    48   29   31 ar
    49   30   47 1
    50   30   48 1
    51   31   32 ar
@<TRIPOS>SUBSTRUCTURE
     1 GTP         1 GROUP 0 A     ****
@<TRIPOS>MOLECULE
[[5-(2-amino-6-oxo-7,8-dihydro-1~{H}-purin-8-ylium-9-yl)-3,4-dihydroxy-tetrahydrofuran-2-yl]methoxy-hydroxy-phosphoryl] phosphono hydrogen phosphate
   49    51     1     0     0
SMALL
USER_CHARGES

@<TRIPOS>ATOM
      1 PG          3.1448   -4.5921   -4.5142 P.3       1 GTP         1.7996
      2 O1G         3.6275   -5.0600   -3.1729 O.2       1 GTP        -0.8112
      3 O2G         3.0400   -5.7379   -5.6490 O.3       1 GTP        -0.7934
      4 O3G         1.6741   -3.9214   -4.5192 O.3       1 GTP        -0.7934
      5 O3B         4.0665   -3.4579   -5.2039 O.3       1 GTP        -0.8067
      6 PB          4.4843   -1.9721   -4.7262 P.3       1 GTP         1.9429
      7 O1B         5.2327   -1.9213   -3.4269 O.2       1 GTP        -0.8303
      8 O2B         5.2717   -1.3628   -5.9997 O.3       1 GTP        -0.7951
      9 O3A         3.0954   -1.1498   -4.7662 O.3       1 GTP        -0.7994
     10 PA          2.7556    0.3903   -4.4163 P.3       1 GTP         1.7871
     11 O1A         3.4961    1.3896   -5.2568 O.2       1 GTP        -0.8044
     12 O2A         1.1459    0.4566   -4.5634 O.3       1 GTP        -0.8076
     13 O5'         3.0192    0.5132   -2.8246 O.3       1 GTP        -0.5620
     14 C5'         2.2816   -0.2918   -1.9206 C.3       1 GTP         0.1570
     15 C4'         2.7248    0.0226   -0.4980 C.3       1 GTP         0.1395
     16 O4'         2.4697    1.4219   -0.2462 O.3       1 GTP        -0.3978
     17 C3'         1.9404   -0.7419    0.5596 C.3       1 GTP         0.0953
     18 O3'         2.7418   -0.8086    1.7389 O.3       1 GTP        -0.5639
     19 C2'         0.7477    0.1630    0.7858 C.3       1 GTP         0.0640
     20 O2'         0.1373   -0.0577    2.0407 O.3       1 GTP        -0.5724
     21 C1'         1.3733    1.5427    0.6747 C.3       1 GTP         0.4182
     22 N9          0.4520    2.5240    0.1767 N.pl3     1 GTP        -0.4563
     23 C8          0.2203    2.8205   -1.0970 C.ar      1 GTP         0.2386
     24 N7         -0.6947    3.7752   -1.2304 N.pl3     1 GTP        -0.4432
     25 C5         -1.0607    4.0987    0.0476 C.ar      1 GTP        -0.2050
     26 C6         -2.0310    5.0839    0.5029 C.ar      1 GTP         0.7599
     27 O6         -2.6779    5.7867   -0.2609 O.2       1 GTP        -0.5606
     28 N1         -2.1030    5.0975    1.8948 N.pl3     1 GTP        -0.5020
     29 C2         -1.3422    4.2721    2.7403 C.ar      1 GTP         0.7674
     30 N2         -1.5624    4.4419    4.0823 N.pl3     1 GTP        -0.9014
     31 N3         -0.4796    3.3981    2.2792 N.2       1 GTP        -0.6718
     32 C4         -0.3754    3.3496    0.9208 C.ar      1 GTP         0.3897
     33 HOG2        2.4477   -6.5047   -5.4967 H         1 GTP         0.5007
     34 HOG3        1.5152   -3.1216   -3.9742 H         1 GTP         0.5007
     35 HOB2        5.5480   -0.4218   -5.9811 H         1 GTP         0.5193
     36 HOA2        0.6824    1.2891   -4.3308 H         1 GTP         0.4890
     37 H5'         1.2150   -0.0785   -2.0448 H         1 GTP         0.0511
     38 H5''        2.4641   -1.3458   -2.1540 H         1 GTP         0.0511
     39 H4'         3.8049   -0.1388   -0.4009 H         1 GTP         0.1554
     40 H3'         1.6783   -1.7629    0.2715 H         1 GTP         0.0796
     41 HO3'        2.2232   -1.2979    2.3953 H         1 GTP         0.4259
     42 H2'        -0.0011    0.0027    0.0003 H         1 GTP         0.0621
     43 HO2'       -0.6141    0.5574    2.1082 H         1 GTP         0.4287
     44 H1'         1.7826    1.9024    1.6451 H         1 GTP         0.1525
     45 H8          0.7110    2.3472   -1.9295 H         1 GTP         0.2675
     46 HN1        -2.7504    5.7495    2.3282 H         1 GTP         0.3601
     47 HN21       -2.2294    5.1209    4.3678 H         1 GTP         0.4770
     48 HN22       -1.0468    3.8797    4.7192 H         1 GTP         0.4770
     49 H49        -1.0382    4.1687   -2.0954 H         1 GTP         0.5213
@<TRIPOS>BOND
     1    1    2 2
     2    1    3 1
     3    1    4 1
     4    1    5 1
     5    3   33 1
     6    4   34 1
     7    5    6 1
     8    6    7 2
     9    6    8 1
    10    6    9 1
    11    8   35 1
    12    9   10 1
    13   10   11 2
    14   10   12 1
    15   10   13 1
    16   12   36 1
    17   13   14 1
    18   14   15 1
    19   14   37 1
    20   14   38 1
    21   15   16 1
    22   15   17 1
    23   15   39 1
    24   16   21 1
    25   17   18 1
    26   17   19 1
    27   17   40 1
    28   18   41 1
    29   19   20 1
    30   19   21 1
    31   19   42 1
    32   20   43 1
    33   21   22 1
    34   21   44 1
    35   22   23 ar
    36   22   32 ar
    37   23   24 ar
    38   23   45 1
    39   24   25 ar
    40   24   49 1
    41   25   26 ar
    42   25   32 ar
    43   26   27 2
    44   26   28 ar
    45   28   29 ar
    46   28   46 1
    47   29   30 1
    48   29   31 ar
    49   30   47 1
    50   30   48 1
    51   31   32 ar
@<TRIPOS>SUBSTRUCTURE
     1 GTP         1 GROUP 0 A     ****
@<TRIPOS>MOLECULE
[[5-(2-amino-6-oxo-7,8-dihydro-1~{H}-purin-8-ylium-9-yl)-3,4-dihydroxy-tetrahydrofuran-2-yl]methoxy-hydroxy-phosphoryl] phosphono hydrogen phosphate
   49    51     1     0     0
SMALL
USER_CHARGES

@<TRIPOS>ATOM
      1 PG          5.2303   -3.7157   -1.8303 P.3       1 GTP         1.7996
      2 O1G         6.6535   -3.9146   -2.2615 O.2       1 GTP        -0.8112
      3 O2G         4.3446   -5.0635   -1.7278 O.3       1 GTP        -0.7934
      4 O3G         5.0418   -3.0298   -0.3789 O.3       1 GTP        -0.7934
      5 O3B         4.3591   -2.7619   -2.8015 O.3       1 GTP        -0.8067
      6 PB          3.9719   -2.8827   -4.3653 P.3       1 GTP         1.9429
      7 O1B         5.1461   -2.9163   -5.2986 O.2       1 GTP        -0.8303
      8 O2B         3.0055   -4.1772   -4.4264 O.3       1 GTP        -0.7951
      9 O3A         2.9276   -1.6737   -4.5982 O.3       1 GTP        -0.7994
     10 PA          3.0852   -0.0762   -4.4159 P.3       1 GTP         1.7871
     11 O1A         4.1533    0.5381   -5.2733 O.2       1 GTP        -0.8044
     12 O2A         1.5937    0.4784   -4.7077 O.3       1 GTP        -0.8076
     13 O5'         3.2876    0.1332   -2.8242 O.3       1 GTP        -0.5620
     14 C5'         2.2816   -0.2918   -1.9206 C.3       1 GTP         0.1570
     15 C4'         2.7248    0.0226   -0.4980 C.3       1 GTP         0.1395
     16 O4'         2.4697    1.4219   -0.2462 O.3       1 GTP        -0.3978
     17 C3'         1.9404   -0.7419    0.5596 C.3       1 GTP         0.0953
     18 O3'         2.7418   -0.8086    1.7389 O.3       1 GTP        -0.5639
     19 C2'         0.7477    0.1630    0.7858 C.3       1 GTP         0.0640
     20 O2'         0.1373   -0.0577    2.0407 O.3       1 GTP        -0.5724
     21 C1'         1.3733    1.5427    0.6747 C.3       1 GTP         0.4182
     22 N9          0.4520    2.5240    0.1767 N.pl3     1 GTP        -0.4563
     23 C8          0.2203    2.8205   -1.0970 C.ar      1 GTP         0.2386
     24 N7         -0.6947    3.7752   -1.2304 N.pl3     1 GTP        -0.4432
     25 C5         -1.0607    4.0987    0.0476 C.ar      1 GTP        -0.2050
     26 C6         -2.0310    5.0839    0.5029 C.ar      1 GTP         0.7599
     27 O6         -2.6779    5.7867   -0.2609 O.2       1 GTP        -0.5606
     28 N1         -2.1030    5.0975    1.8948 N.pl3     1 GTP        -0.5020
     29 C2         -1.3422    4.2721    2.7403 C.ar      1 GTP         0.7674
     30 N2         -1.5624    4.4419    4.0823 N.pl3     1 GTP        -0.9014
     31 N3         -0.4796    3.3981    2.2792 N.2       1 GTP        -0.6718
     32 C4         -0.3754    3.3496    0.9208 C.ar      1 GTP         0.3897
     33 HOG2        4.6271   -5.7719   -1.1111 H         1 GTP         0.5007
     34 HOG3        5.4103   -2.1338   -0.2257 H         1 GTP         0.5007
     35 HOB2        3.3808   -5.0598   -4.2211 H         1 GTP         0.5193
     36 HOA2        1.4122    1.4351   -4.5904 H         1 GTP         0.4890
     37 H5'         1.3495    0.2323   -2.1554 H         1 GTP         0.0511
     38 H5''        2.1262   -1.3685   -2.0437 H         1 GTP         0.0511
     39 H4'         3.8049   -0.1388   -0.4009 H         1 GTP         0.1554
     40 H3'         1.6783   -1.7629    0.2715 H         1 GTP         0.0796
     41 HO3'        2.2232   -1.2979    2.3953 H         1 GTP         0.4259
     42 H2'        -0.0011    0.0027    0.0003 H         1 GTP         0.0621
     43 HO2'       -0.6141    0.5574    2.1082 H         1 GTP         0.4287
     44 H1'         1.7826    1.9024    1.6451 H         1 GTP         0.1525
     45 H8          0.7110    2.3472   -1.9295 H         1 GTP         0.2675
     46 HN1        -2.7504    5.7495    2.3282 H         1 GTP         0.3601
     47 HN21       -1.0467    3.8796    4.7190 H         1 GTP         0.4770
     48 HN22       -2.2294    5.1209    4.3680 H         1 GTP         0.4770
     49 H49        -1.0382    4.1687   -2.0954 H         1 GTP         0.5213
@<TRIPOS>BOND
     1    1    2 2
     2    1    3 1
     3    1    4 1
     4    1    5 1
     5    3   33 1
     6    4   34 1
     7    5    6 1
     8    6    7 2
     9    6    8 1
    10    6    9 1
    11    8   35 1
    12    9   10 1
    13   10   11 2
    14   10   12 1
    15   10   13 1
    16   12   36 1
    17   13   14 1
    18   14   15 1
    19   14   37 1
    20   14   38 1
    21   15   16 1
    22   15   17 1
    23   15   39 1
    24   16   21 1
    25   17   18 1
    26   17   19 1
    27   17   40 1
    28   18   41 1
    29   19   20 1
    30   19   21 1
    31   19   42 1
    32   20   43 1
    33   21   22 1
    34   21   44 1
    35   22   23 ar
    36   22   32 ar
    37   23   24 ar
    38   23   45 1
    39   24   25 ar
    40   24   49 1
    41   25   26 ar
    42   25   32 ar
    43   26   27 2
    44   26   28 ar
    45   28   29 ar
    46   28   46 1
    47   29   30 1
    48   29   31 ar
    49   30   47 1
    50   30   48 1
    51   31   32 ar
@<TRIPOS>SUBSTRUCTURE
     1 GTP         1 GROUP 0 A     ****
@<TRIPOS>MOLECULE
[[5-(2-amino-6-oxo-7,8-dihydro-1~{H}-purin-8-ylium-9-yl)-3,4-dihydroxy-tetrahydrofuran-2-yl]methoxy-hydroxy-phosphoryl] phosphono hydrogen phosphate
   49    51     1     0     0
SMALL
USER_CHARGES

@<TRIPOS>ATOM
      1 PG          4.9490   -4.7676   -5.5466 P.3       1 GTP         1.7996
      2 O1G         5.9311   -4.5848   -6.6660 O.2       1 GTP        -0.8112
      3 O2G         3.8416   -5.9211   -5.7804 O.3       1 GTP        -0.7934
      4 O3G         5.5998   -5.1542   -4.1184 O.3       1 GTP        -0.7934
      5 O3B         4.0665   -3.4579   -5.2039 O.3       1 GTP        -0.8067
      6 PB          4.4843   -1.9721   -4.7262 P.3       1 GTP         1.9429
      7 O1B         5.2327   -1.9213   -3.4269 O.2       1 GTP        -0.8303
      8 O2B         5.2717   -1.3628   -5.9997 O.3       1 GTP        -0.7951
      9 O3A         3.0954   -1.1498   -4.7662 O.3       1 GTP        -0.7994
     10 PA          2.7556    0.3903   -4.4163 P.3       1 GTP         1.7871
     11 O1A         3.4961    1.3896   -5.2568 O.2       1 GTP        -0.8044
     12 O2A         1.1459    0.4566   -4.5634 O.3       1 GTP        -0.8076
     13 O5'         3.0192    0.5132   -2.8246 O.3       1 GTP        -0.5620
     14 C5'         2.2816   -0.2918   -1.9206 C.3       1 GTP         0.1570
     15 C4'         2.7248    0.0226   -0.4980 C.3       1 GTP         0.1395
     16 O4'         2.4697    1.4219   -0.2462 O.3       1 GTP        -0.3978
     17 C3'         1.9404   -0.7419    0.5596 C.3       1 GTP         0.0953
     18 O3'         2.7418   -0.8086    1.7389 O.3       1 GTP        -0.5639
     19 C2'         0.7477    0.1630    0.7858 C.3       1 GTP         0.0640
     20 O2'         0.1373   -0.0577    2.0407 O.3       1 GTP        -0.5724
     21 C1'         1.3733    1.5427    0.6747 C.3       1 GTP         0.4182
     22 N9          0.4520    2.5240    0.1767 N.pl3     1 GTP        -0.4563
     23 C8          0.2203    2.8205   -1.0970 C.ar      1 GTP         0.2386
     24 N7         -0.6947    3.7752   -1.2304 N.pl3     1 GTP        -0.4432
     25 C5         -1.0607    4.0987    0.0476 C.ar      1 GTP        -0.2050
     26 C6         -2.0310    5.0839    0.5029 C.ar      1 GTP         0.7599
     27 O6         -2.6779    5.7867   -0.2609 O.2       1 GTP        -0.5606
     28 N1         -2.1030    5.0975    1.8948 N.pl3     1 GTP        -0.5020
     29 C2         -1.3422    4.2721    2.7403 C.ar      1 GTP         0.7674
     30 N2         -1.5624    4.4419    4.0823 N.pl3     1 GTP        -0.9014
     31 N3         -0.4796    3.3981    2.2792 N.2       1 GTP        -0.6718
     32 C4         -0.3754    3.3496    0.9208 C.ar      1 GTP         0.3897
     33 HOG2        4.1398   -6.8454   -5.9172 H         1 GTP         0.5007
     34 HOG3        6.2404   -4.5366   -3.7057 H         1 GTP         0.5007
     35 HOB2        5.5480   -0.4218   -5.9811 H         1 GTP         0.5193
     36 HOA2        0.6824    1.2891   -4.3308 H         1 GTP         0.4890
     37 H5'         1.2150   -0.0785   -2.0448 H         1 GTP         0.0511
     38 H5''        2.4641   -1.3458   -2.1540 H         1 GTP         0.0511
     39 H4'         3.8049   -0.1388   -0.4009 H         1 GTP         0.1554
     40 H3'         1.6783   -1.7629    0.2715 H         1 GTP         0.0796
     41 HO3'        2.2232   -1.2979    2.3953 H         1 GTP         0.4259
     42 H2'        -0.0011    0.0027    0.0003 H         1 GTP         0.0621
     43 HO2'       -0.6141    0.5574    2.1082 H         1 GTP         0.4287
     44 H1'         1.7826    1.9024    1.6451 H         1 GTP         0.1525
     45 H8          0.7110    2.3472   -1.9295 H         1 GTP         0.2675
     46 HN1        -2.7504    5.7495    2.3282 H         1 GTP         0.3601
     47 HN21       -1.0467    3.8796    4.7190 H         1 GTP         0.4770
     48 HN22       -2.2294    5.1209    4.3680 H         1 GTP         0.4770
     49 H49        -1.0382    4.1687   -2.0954 H         1 GTP         0.5213
@<TRIPOS>BOND
     1    1    2 2
     2    1    3 1
     3    1    4 1
     4    1    5 1
     5    3   33 1
     6    4   34 1
     7    5    6 1
     8    6    7 2
     9    6    8 1
    10    6    9 1
    11    8   35 1
    12    9   10 1
    13   10   11 2
    14   10   12 1
    15   10   13 1
    16   12   36 1
    17   13   14 1
    18   14   15 1
    19   14   37 1
    20   14   38 1
    21   15   16 1
    22   15   17 1
    23   15   39 1
    24   16   21 1
    25   17   18 1
    26   17   19 1
    27   17   40 1
    28   18   41 1
    29   19   20 1
    30   19   21 1
    31   19   42 1
    32   20   43 1
    33   21   22 1
    34   21   44 1
    35   22   23 ar
    36   22   32 ar
    37   23   24 ar
    38   23   45 1
    39   24   25 ar
    40   24   49 1
    41   25   26 ar
    42   25   32 ar
    43   26   27 2
    44   26   28 ar
    45   28   29 ar
    46   28   46 1
    47   29   30 1
    48   29   31 ar
    49   30   47 1
    50   30   48 1
    51   31   32 ar
@<TRIPOS>SUBSTRUCTURE
     1 GTP         1 GROUP 0 A     ****
@<TRIPOS>MOLECULE
[[5-(2-amino-6-oxo-7,8-dihydro-1~{H}-purin-8-ylium-9-yl)-3,4-dihydroxy-tetrahydrofuran-2-yl]methoxy-hydroxy-phosphoryl] phosphono hydrogen phosphate
   49    51     1     0     0
SMALL
USER_CHARGES

@<TRIPOS>ATOM
      1 PG         -3.5678   -2.2207   -3.4564 P.3       1 GTP         1.7996
      2 O1G        -4.0731   -1.9906   -2.0626 O.2       1 GTP        -0.8112
      3 O2G        -3.7903   -3.7134   -4.0344 O.3       1 GTP        -0.7934
      4 O3G        -4.2262   -1.2756   -4.5905 O.3       1 GTP        -0.7934
      5 O3B        -1.9825   -1.9718   -3.6480 O.3       1 GTP        -0.8067
      6 PB         -0.6931   -2.6614   -2.9611 P.3       1 GTP         1.9429
      7 O1B        -0.6290   -2.5182   -1.4690 O.2       1 GTP        -0.8303
      8 O2B        -0.7304   -4.1826   -3.5067 O.3       1 GTP        -0.7951
      9 O3A         0.5552   -2.0432   -3.7774 O.3       1 GTP        -0.7994
     10 PA          2.1468   -2.2811   -3.6362 P.3       1 GTP         1.7871
     11 O1A         2.5767   -3.7041   -3.8445 O.2       1 GTP        -0.8044
     12 O2A         2.7731   -1.2324   -4.6970 O.3       1 GTP        -0.8076
     13 O5'         2.5234   -1.6624   -2.1893 O.3       1 GTP        -0.5620
     14 C5'         2.2816   -0.2918   -1.9206 C.3       1 GTP         0.1570
     15 C4'         2.7248    0.0226   -0.4980 C.3       1 GTP         0.1395
     16 O4'         2.4697    1.4219   -0.2462 O.3       1 GTP        -0.3978
     17 C3'         1.9404   -0.7419    0.5596 C.3       1 GTP         0.0953
     18 O3'         2.7418   -0.8086    1.7389 O.3       1 GTP        -0.5639
     19 C2'         0.7477    0.1630    0.7858 C.3       1 GTP         0.0640
     20 O2'         0.1373   -0.0577    2.0407 O.3       1 GTP        -0.5724
     21 C1'         1.3733    1.5427    0.6747 C.3       1 GTP         0.4182
     22 N9          0.4520    2.5240    0.1767 N.pl3     1 GTP        -0.4563
     23 C8          0.2203    2.8205   -1.0970 C.ar      1 GTP         0.2386
     24 N7         -0.6947    3.7752   -1.2304 N.pl3     1 GTP        -0.4432
     25 C5         -1.0607    4.0987    0.0476 C.ar      1 GTP        -0.2050
     26 C6         -2.0310    5.0839    0.5029 C.ar      1 GTP         0.7599
     27 O6         -2.6779    5.7867   -0.2609 O.2       1 GTP        -0.5606
     28 N1         -2.1030    5.0975    1.8948 N.pl3     1 GTP        -0.5020
     29 C2         -1.3422    4.2721    2.7403 C.ar      1 GTP         0.7674
     30 N2         -1.5624    4.4419    4.0823 N.pl3     1 GTP        -0.9014
     31 N3         -0.4796    3.3981    2.2792 N.2       1 GTP        -0.6718
     32 C4         -0.3754    3.3496    0.9208 C.ar      1 GTP         0.3897
     33 HOG2       -3.3832   -4.4710   -3.5629 H         1 GTP         0.5007
     34 HOG3       -5.1957   -1.3122   -4.7349 H         1 GTP         0.5007
     35 HOB2        0.0168   -4.7815   -3.2945 H         1 GTP         0.5193
     36 HOA2        3.7478   -1.1363   -4.7496 H         1 GTP         0.4890
     37 H5'         2.8429    0.3147   -2.6388 H         1 GTP         0.0511
     38 H5''        1.2125   -0.0898   -2.0417 H         1 GTP         0.0511
     39 H4'         3.8049   -0.1388   -0.4009 H         1 GTP         0.1554
     40 H3'         1.6783   -1.7629    0.2715 H         1 GTP         0.0796
     41 HO3'        2.2232   -1.2979    2.3953 H         1 GTP         0.4259
     42 H2'        -0.0011    0.0027    0.0003 H         1 GTP         0.0621
     43 HO2'       -0.6141    0.5574    2.1082 H         1 GTP         0.4287
     44 H1'         1.7826    1.9024    1.6451 H         1 GTP         0.1525
     45 H8          0.7110    2.3472   -1.9295 H         1 GTP         0.2675
     46 HN1        -2.7504    5.7495    2.3282 H         1 GTP         0.3601
     47 HN21       -1.0467    3.8796    4.7190 H         1 GTP         0.4770
     48 HN22       -2.2294    5.1209    4.3680 H         1 GTP         0.4770
     49 H49        -1.0382    4.1687   -2.0954 H         1 GTP         0.5213
@<TRIPOS>BOND
     1    1    2 2
     2    1    3 1
     3    1    4 1
     4    1    5 1
     5    3   33 1
     6    4   34 1
     7    5    6 1
     8    6    7 2
     9    6    8 1
    10    6    9 1
    11    8   35 1
    12    9   10 1
    13   10   11 2
    14   10   12 1
    15   10   13 1
    16   12   36 1
    17   13   14 1
    18   14   15 1
    19   14   37 1
    20   14   38 1
    21   15   16 1
    22   15   17 1
    23   15   39 1
    24   16   21 1
    25   17   18 1
    26   17   19 1
    27   17   40 1
    28   18   41 1
    29   19   20 1
    30   19   21 1
    31   19   42 1
    32   20   43 1
    33   21   22 1
    34   21   44 1
    35   22   23 ar
    36   22   32 ar
    37   23   24 ar
    38   23   45 1
    39   24   25 ar
    40   24   49 1
    41   25   26 ar
    42   25   32 ar
    43   26   27 2
    44   26   28 ar
    45   28   29 ar
    46   28   46 1
    47   29   30 1
    48   29   31 ar
    49   30   47 1
    50   30   48 1
    51   31   32 ar
@<TRIPOS>SUBSTRUCTURE
     1 GTP         1 GROUP 0 A     ****
@<TRIPOS>MOLECULE
[[5-(2-amino-6-oxo-7,8-dihydro-1~{H}-purin-8-ylium-9-yl)-3,4-dihydroxy-tetrahydrofuran-2-yl]methoxy-hydroxy-phosphoryl] phosphono hydrogen phosphate
   49    51     1     0     0
SMALL
USER_CHARGES

@<TRIPOS>ATOM
      1 PG          4.9462   -4.0030   -5.3576 P.3       1 GTP         1.7996
      2 O1G         5.9811   -3.8017   -6.4251 O.2       1 GTP        -0.8112
      3 O2G         4.6918   -5.5384   -4.9226 O.3       1 GTP        -0.7934
      4 O3G         5.2525   -3.2599   -3.9553 O.3       1 GTP        -0.7934
      5 O3B         3.4703   -3.4675   -5.7406 O.3       1 GTP        -0.8067
      6 PB          2.9251   -1.9973   -6.1298 P.3       1 GTP         1.9429
      7 O1B         3.5597   -1.3990   -7.3506 O.2       1 GTP        -0.8303
      8 O2B         1.3217   -2.1869   -6.2090 O.3       1 GTP        -0.7951
      9 O3A         3.0954   -1.1498   -4.7662 O.3       1 GTP        -0.7994
     10 PA          2.7556    0.3903   -4.4163 P.3       1 GTP         1.7871
     11 O1A         3.4961    1.3896   -5.2568 O.2       1 GTP        -0.8044
     12 O2A         1.1459    0.4566   -4.5634 O.3       1 GTP        -0.8076
     13 O5'         3.0192    0.5132   -2.8246 O.3       1 GTP        -0.5620
     14 C5'         2.2816   -0.2918   -1.9206 C.3       1 GTP         0.1570
     15 C4'         2.7248    0.0226   -0.4980 C.3       1 GTP         0.1395
     16 O4'         2.4697    1.4219   -0.2462 O.3       1 GTP        -0.3978
     17 C3'         1.9404   -0.7419    0.5596 C.3       1 GTP         0.0953
     18 O3'         2.7418   -0.8086    1.7389 O.3       1 GTP        -0.5639
     19 C2'         0.7477    0.1630    0.7858 C.3       1 GTP         0.0640
     20 O2'         0.1373   -0.0577    2.0407 O.3       1 GTP        -0.5724
     21 C1'         1.3733    1.5427    0.6747 C.3       1 GTP         0.4182
     22 N9          0.4520    2.5240    0.1767 N.pl3     1 GTP        -0.4563
     23 C8          0.2203    2.8205   -1.0970 C.ar      1 GTP         0.2386
     24 N7         -0.6947    3.7752   -1.2304 N.pl3     1 GTP        -0.4432
     25 C5         -1.0607    4.0987    0.0476 C.ar      1 GTP        -0.2050
     26 C6         -2.0310    5.0839    0.5029 C.ar      1 GTP         0.7599
     27 O6         -2.6779    5.7867   -0.2609 O.2       1 GTP        -0.5606
     28 N1         -2.1030    5.0975    1.8948 N.pl3     1 GTP        -0.5020
     29 C2         -1.3422    4.2721    2.7403 C.ar      1 GTP         0.7674
     30 N2         -1.5624    4.4419    4.0823 N.pl3     1 GTP        -0.9014
     31 N3         -0.4796    3.3981    2.2792 N.2       1 GTP        -0.6718
     32 C4         -0.3754    3.3496    0.9208 C.ar      1 GTP         0.3897
     33 HOG2        5.4385   -6.0584   -4.5563 H         1 GTP         0.5007
     34 HOG3        5.3435   -2.2833   -3.9453 H         1 GTP         0.5007
     35 HOB2        0.7564   -1.3968   -6.3439 H         1 GTP         0.5193
     36 HOA2        0.6824    1.2891   -4.3308 H         1 GTP         0.4890
     37 H5'         1.2150   -0.0785   -2.0448 H         1 GTP         0.0511
     38 H5''        2.4641   -1.3458   -2.1540 H         1 GTP         0.0511
     39 H4'         3.8049   -0.1388   -0.4009 H         1 GTP         0.1554
     40 H3'         1.6783   -1.7629    0.2715 H         1 GTP         0.0796
     41 HO3'        2.2232   -1.2979    2.3953 H         1 GTP         0.4259
     42 H2'        -0.0011    0.0027    0.0003 H         1 GTP         0.0621
     43 HO2'       -0.6141    0.5574    2.1082 H         1 GTP         0.4287
     44 H1'         1.7826    1.9024    1.6451 H         1 GTP         0.1525
     45 H8          0.7110    2.3472   -1.9295 H         1 GTP         0.2675
     46 HN1        -2.7504    5.7495    2.3282 H         1 GTP         0.3601
     47 HN21       -2.2294    5.1209    4.3678 H         1 GTP         0.4770
     48 HN22       -1.0468    3.8797    4.7192 H         1 GTP         0.4770
     49 H49        -1.0382    4.1687   -2.0954 H         1 GTP         0.5213
@<TRIPOS>BOND
     1    1    2 2
     2    1    3 1
     3    1    4 1
     4    1    5 1
     5    3   33 1
     6    4   34 1
     7    5    6 1
     8    6    7 2
     9    6    8 1
    10    6    9 1
    11    8   35 1
    12    9   10 1
    13   10   11 2
    14   10   12 1
    15   10   13 1
    16   12   36 1
    17   13   14 1
    18   14   15 1
    19   14   37 1
    20   14   38 1
    21   15   16 1
    22   15   17 1
    23   15   39 1
    24   16   21 1
    25   17   18 1
    26   17   19 1
    27   17   40 1
    28   18   41 1
    29   19   20 1
    30   19   21 1
    31   19   42 1
    32   20   43 1
    33   21   22 1
    34   21   44 1
    35   22   23 ar
    36   22   32 ar
    37   23   24 ar
    38   23   45 1
    39   24   25 ar
    40   24   49 1
    41   25   26 ar
    42   25   32 ar
    43   26   27 2
    44   26   28 ar
    45   28   29 ar
    46   28   46 1
    47   29   30 1
    48   29   31 ar
    49   30   47 1
    50   30   48 1
    51   31   32 ar
@<TRIPOS>SUBSTRUCTURE
     1 GTP         1 GROUP 0 A     ****
@<TRIPOS>MOLECULE
[[5-(2-amino-6-oxo-7,8-dihydro-1~{H}-purin-8-ylium-9-yl)-3,4-dihydroxy-tetrahydrofuran-2-yl]methoxy-hydroxy-phosphoryl] phosphono hydrogen phosphate
   49    51     1     0     0
SMALL
USER_CHARGES

@<TRIPOS>ATOM
      1 PG          4.2765   -1.5472   -8.7134 P.3       1 GTP         1.7996
      2 O1G         5.0423   -2.8279   -8.8703 O.2       1 GTP        -0.8112
      3 O2G         5.0515   -0.2149   -9.1991 O.3       1 GTP        -0.7934
      4 O3G         2.8754   -1.4820   -9.5168 O.3       1 GTP        -0.7934
      5 O3B         3.8439   -1.2025   -7.1950 O.3       1 GTP        -0.8067
      6 PB          2.9251   -1.9973   -6.1298 P.3       1 GTP         1.9429
      7 O1B         1.5124   -2.2326   -6.5769 O.2       1 GTP        -0.8303
      8 O2B         3.7765   -3.3322   -5.8037 O.3       1 GTP        -0.7951
      9 O3A         3.0954   -1.1498   -4.7662 O.3       1 GTP        -0.7994
     10 PA          2.7556    0.3903   -4.4163 P.3       1 GTP         1.7871
     11 O1A         3.4961    1.3896   -5.2568 O.2       1 GTP        -0.8044
     12 O2A         1.1459    0.4566   -4.5634 O.3       1 GTP        -0.8076
     13 O5'         3.0192    0.5132   -2.8246 O.3       1 GTP        -0.5620
     14 C5'         2.2816   -0.2918   -1.9206 C.3       1 GTP         0.1570
     15 C4'         2.7248    0.0226   -0.4980 C.3       1 GTP         0.1395
     16 O4'         2.4697    1.4219   -0.2462 O.3       1 GTP        -0.3978
     17 C3'         1.9404   -0.7419    0.5596 C.3       1 GTP         0.0953
     18 O3'         2.7418   -0.8086    1.7389 O.3       1 GTP        -0.5639
     19 C2'         0.7477    0.1630    0.7858 C.3       1 GTP         0.0640
     20 O2'         0.1373   -0.0577    2.0407 O.3       1 GTP        -0.5724
     21 C1'         1.3733    1.5427    0.6747 C.3       1 GTP         0.4182
     22 N9          0.4520    2.5240    0.1767 N.pl3     1 GTP        -0.4563
     23 C8          0.2203    2.8205   -1.0970 C.ar      1 GTP         0.2386
     24 N7         -0.6947    3.7752   -1.2304 N.pl3     1 GTP        -0.4432
     25 C5         -1.0607    4.0987    0.0476 C.ar      1 GTP        -0.2050
     26 C6         -2.0310    5.0839    0.5029 C.ar      1 GTP         0.7599
     27 O6         -2.6779    5.7867   -0.2609 O.2       1 GTP        -0.5606
     28 N1         -2.1030    5.0975    1.8948 N.pl3     1 GTP        -0.5020
     29 C2         -1.3422    4.2721    2.7403 C.ar      1 GTP         0.7674
     30 N2         -1.5624    4.4419    4.0823 N.pl3     1 GTP        -0.9014
     31 N3         -0.4796    3.3981    2.2792 N.2       1 GTP        -0.6718
     32 C4         -0.3754    3.3496    0.9208 C.ar      1 GTP         0.3897
     33 HOG2        5.3372   -0.1458  -10.1348 H         1 GTP         0.5007
     34 HOG3        2.1794   -2.1420   -9.3119 H         1 GTP         0.5007
     35 HOB2        3.9144   -3.9929   -6.5155 H         1 GTP         0.5193
     36 HOA2        0.6824    1.2891   -4.3308 H         1 GTP         0.4890
     37 H5'         1.2150   -0.0785   -2.0448 H         1 GTP         0.0511
     38 H5''        2.4641   -1.3458   -2.1540 H         1 GTP         0.0511
     39 H4'         3.8049   -0.1388   -0.4009 H         1 GTP         0.1554
     40 H3'         1.6783   -1.7629    0.2715 H         1 GTP         0.0796
     41 HO3'        2.2232   -1.2979    2.3953 H         1 GTP         0.4259
     42 H2'        -0.0011    0.0027    0.0003 H         1 GTP         0.0621
     43 HO2'       -0.6141    0.5574    2.1082 H         1 GTP         0.4287
     44 H1'         1.7826    1.9024    1.6451 H         1 GTP         0.1525
     45 H8          0.7110    2.3472   -1.9295 H         1 GTP         0.2675
     46 HN1        -2.7504    5.7495    2.3282 H         1 GTP         0.3601
     47 HN21       -1.0467    3.8796    4.7190 H         1 GTP         0.4770
     48 HN22       -2.2294    5.1209    4.3680 H         1 GTP         0.4770
     49 H49        -1.0382    4.1687   -2.0954 H         1 GTP         0.5213
@<TRIPOS>BOND
     1    1    2 2
     2    1    3 1
     3    1    4 1
     4    1    5 1
     5    3   33 1
     6    4   34 1
     7    5    6 1
     8    6    7 2
     9    6    8 1
    10    6    9 1
    11    8   35 1
    12    9   10 1
    13   10   11 2
    14   10   12 1
    15   10   13 1
    16   12   36 1
    17   13   14 1
    18   14   15 1
    19   14   37 1
    20   14   38 1
    21   15   16 1
    22   15   17 1
    23   15   39 1
    24   16   21 1
    25   17   18 1
    26   17   19 1
    27   17   40 1
    28   18   41 1
    29   19   20 1
    30   19   21 1
    31   19   42 1
    32   20   43 1
    33   21   22 1
    34   21   44 1
    35   22   23 ar
    36   22   32 ar
    37   23   24 ar
    38   23   45 1
    39   24   25 ar
    40   24   49 1
    41   25   26 ar
    42   25   32 ar
    43   26   27 2
    44   26   28 ar
    45   28   29 ar
    46   28   46 1
    47   29   30 1
    48   29   31 ar
    49   30   47 1
    50   30   48 1
    51   31   32 ar
@<TRIPOS>SUBSTRUCTURE
     1 GTP         1 GROUP 0 A     ****
@<TRIPOS>MOLECULE
[[5-(2-amino-6-oxo-7,8-dihydro-1~{H}-purin-8-ylium-9-yl)-3,4-dihydroxy-tetrahydrofuran-2-yl]methoxy-hydroxy-phosphoryl] phosphono hydrogen phosphate
   49    51     1     0     0
SMALL
USER_CHARGES

@<TRIPOS>ATOM
      1 PG         -2.5007   -0.4413   -3.6730 P.3       1 GTP         1.7996
      2 O1G        -2.7943    0.1419   -2.3222 O.2       1 GTP        -0.8112
      3 O2G        -3.7517   -0.4807   -4.6953 O.3       1 GTP        -0.7934
      4 O3G        -1.3503    0.3208   -4.5147 O.3       1 GTP        -0.7934
      5 O3B        -1.9825   -1.9718   -3.6480 O.3       1 GTP        -0.8067
      6 PB         -0.6931   -2.6614   -2.9611 P.3       1 GTP         1.9429
      7 O1B        -0.6290   -2.5182   -1.4690 O.2       1 GTP        -0.8303
      8 O2B        -0.7304   -4.1826   -3.5067 O.3       1 GTP        -0.7951
      9 O3A         0.5552   -2.0432   -3.7774 O.3       1 GTP        -0.7994
     10 PA          2.1468   -2.2811   -3.6362 P.3       1 GTP         1.7871
     11 O1A         2.5767   -3.7041   -3.8445 O.2       1 GTP        -0.8044
     12 O2A         2.7731   -1.2324   -4.6970 O.3       1 GTP        -0.8076
     13 O5'         2.5234   -1.6624   -2.1893 O.3       1 GTP        -0.5620
     14 C5'         2.2816   -0.2918   -1.9206 C.3       1 GTP         0.1570
     15 C4'         2.7248    0.0226   -0.4980 C.3       1 GTP         0.1395
     16 O4'         2.4697    1.4219   -0.2462 O.3       1 GTP        -0.3978
     17 C3'         1.9404   -0.7419    0.5596 C.3       1 GTP         0.0953
     18 O3'         2.7418   -0.8086    1.7389 O.3       1 GTP        -0.5639
     19 C2'         0.7477    0.1630    0.7858 C.3       1 GTP         0.0640
     20 O2'         0.1373   -0.0577    2.0407 O.3       1 GTP        -0.5724
     21 C1'         1.3733    1.5427    0.6747 C.3       1 GTP         0.4182
     22 N9          0.4520    2.5240    0.1767 N.pl3     1 GTP        -0.4563
     23 C8          0.5671    3.2221   -0.9473 C.ar      1 GTP         0.2386
     24 N7         -0.4560    4.0508   -1.1290 N.pl3     1 GTP        -0.4432
     25 C5         -1.2671    3.8585   -0.0441 C.ar      1 GTP        -0.2050
     26 C6         -2.5318    4.5014    0.2817 C.ar      1 GTP         0.7599
     27 O6         -3.0527    5.3493   -0.4293 O.2       1 GTP        -0.5606
     28 N1         -3.0357    4.0149    1.4868 N.pl3     1 GTP        -0.5020
     29 C2         -2.4069    3.0373    2.2768 C.ar      1 GTP         0.7674
     30 N2         -3.0679    2.6964    3.4278 N.pl3     1 GTP        -0.9014
     31 N3         -1.2653    2.4872    1.9379 N.2       1 GTP        -0.6718
     32 C4         -0.7342    2.9334    0.7643 C.ar      1 GTP         0.3897
     33 HOG2       -4.5535   -0.9875   -4.4457 H         1 GTP         0.5007
     34 HOG3       -0.4470    0.3814   -4.1372 H         1 GTP         0.5007
     35 HOB2        0.0168   -4.7815   -3.2945 H         1 GTP         0.5193
     36 HOA2        3.7478   -1.1363   -4.7496 H         1 GTP         0.4890
     37 H5'         2.8429    0.3147   -2.6388 H         1 GTP         0.0511
     38 H5''        1.2125   -0.0898   -2.0417 H         1 GTP         0.0511
     39 H4'         3.8049   -0.1388   -0.4009 H         1 GTP         0.1554
     40 H3'         1.6783   -1.7629    0.2715 H         1 GTP         0.0796
     41 HO3'        2.2232   -1.2979    2.3953 H         1 GTP         0.4259
     42 H2'        -0.0011    0.0027    0.0003 H         1 GTP         0.0621
     43 HO2'       -0.1563   -0.9855    2.0596 H         1 GTP         0.4287
     44 H1'         1.7826    1.9024    1.6451 H         1 GTP         0.1525
     45 H8          1.3888    3.1325   -1.6361 H         1 GTP         0.2675
     46 HN1        -3.9188    4.3932    1.8170 H         1 GTP         0.3601
     47 HN21       -2.6609    2.0087    4.0186 H         1 GTP         0.4770
     48 HN22       -3.9293    3.1496    3.6283 H         1 GTP         0.4770
     49 H49        -0.5938    4.6820   -1.9060 H         1 GTP         0.5213
@<TRIPOS>BOND
     1    1    2 2
     2    1    3 1
     3    1    4 1
     4    1    5 1
     5    3   33 1
     6    4   34 1
     7    5    6 1
     8    6    7 2
     9    6    8 1
    10    6    9 1
    11    8   35 1
    12    9   10 1
    13   10   11 2
    14   10   12 1
    15   10   13 1
    16   12   36 1
    17   13   14 1
    18   14   15 1
    19   14   37 1
    20   14   38 1
    21   15   16 1
    22   15   17 1
    23   15   39 1
    24   16   21 1
    25   17   18 1
    26   17   19 1
    27   17   40 1
    28   18   41 1
    29   19   20 1
    30   19   21 1
    31   19   42 1
    32   20   43 1
    33   21   22 1
    34   21   44 1
    35   22   23 ar
    36   22   32 ar
    37   23   24 ar
    38   23   45 1
    39   24   25 ar
    40   24   49 1
    41   25   26 ar
    42   25   32 ar
    43   26   27 2
    44   26   28 ar
    45   28   29 ar
    46   28   46 1
    47   29   30 1
    48   29   31 ar
    49   30   47 1
    50   30   48 1
    51   31   32 ar
@<TRIPOS>SUBSTRUCTURE
     1 GTP         1 GROUP 0 A     ****
@<TRIPOS>MOLECULE
[[5-(2-amino-6-oxo-7,8-dihydro-1~{H}-purin-8-ylium-9-yl)-3,4-dihydroxy-tetrahydrofuran-2-yl]methoxy-hydroxy-phosphoryl] phosphono hydrogen phosphate
   49    51     1     0     0
SMALL
USER_CHARGES

@<TRIPOS>ATOM
      1 PG         -2.8360   -2.4498   -3.2767 P.3       1 GTP         1.7996
      2 O1G        -3.2854   -3.8594   -3.5257 O.2       1 GTP        -0.8112
      3 O2G        -4.0221   -1.3619   -3.1312 O.3       1 GTP        -0.7934
      4 O3G        -1.9610   -2.2348   -1.9348 O.3       1 GTP        -0.7934
      5 O3B        -1.8917   -1.8296   -4.4323 O.3       1 GTP        -0.8067
      6 PB         -0.4555   -2.2895   -5.0121 P.3       1 GTP         1.9429
      7 O1B        -0.4338   -3.6674   -5.6052 O.2       1 GTP        -0.8303
      8 O2B        -0.0461   -1.0970   -6.0238 O.3       1 GTP        -0.7951
      9 O3A         0.5552   -2.0432   -3.7774 O.3       1 GTP        -0.7994
     10 PA          2.1468   -2.2811   -3.6362 P.3       1 GTP         1.7871
     11 O1A         2.5767   -3.7041   -3.8445 O.2       1 GTP        -0.8044
     12 O2A         2.7731   -1.2324   -4.6970 O.3       1 GTP        -0.8076
     13 O5'         2.5234   -1.6624   -2.1893 O.3       1 GTP        -0.5620
     14 C5'         2.2816   -0.2918   -1.9206 C.3       1 GTP         0.1570
     15 C4'         2.7248    0.0226   -0.4980 C.3       1 GTP         0.1395
     16 O4'         2.4697    1.4219   -0.2462 O.3       1 GTP        -0.3978
     17 C3'         1.9404   -0.7419    0.5596 C.3       1 GTP         0.0953
     18 O3'         2.7418   -0.8086    1.7389 O.3       1 GTP        -0.5639
     19 C2'         0.7477    0.1630    0.7858 C.3       1 GTP         0.0640
     20 O2'         0.1373   -0.0577    2.0407 O.3       1 GTP        -0.5724
     21 C1'         1.3733    1.5427    0.6747 C.3       1 GTP         0.4182
     22 N9          0.4520    2.5240    0.1767 N.pl3     1 GTP        -0.4563
     23 C8          0.2203    2.8205   -1.0970 C.ar      1 GTP         0.2386
     24 N7         -0.6947    3.7752   -1.2304 N.pl3     1 GTP        -0.4432
     25 C5         -1.0607    4.0987    0.0476 C.ar      1 GTP        -0.2050
     26 C6         -2.0310    5.0839    0.5029 C.ar      1 GTP         0.7599
     27 O6         -2.6779    5.7867   -0.2609 O.2       1 GTP        -0.5606
     28 N1         -2.1030    5.0975    1.8948 N.pl3     1 GTP        -0.5020
     29 C2         -1.3422    4.2721    2.7403 C.ar      1 GTP         0.7674
     30 N2         -1.5624    4.4419    4.0823 N.pl3     1 GTP        -0.9014
     31 N3         -0.4796    3.3981    2.2792 N.2       1 GTP        -0.6718
     32 C4         -0.3754    3.3496    0.9208 C.ar      1 GTP         0.3897
     33 HOG2       -4.6843   -1.4736   -2.4163 H         1 GTP         0.5007
     34 HOG3       -1.1145   -2.7207   -1.8369 H         1 GTP         0.5007
     35 HOB2        0.8443   -1.1082   -6.4351 H         1 GTP         0.5193
     36 HOA2        3.7478   -1.1363   -4.7496 H         1 GTP         0.4890
     37 H5'         2.8429    0.3147   -2.6388 H         1 GTP         0.0511
     38 H5''        1.2125   -0.0898   -2.0417 H         1 GTP         0.0511
     39 H4'         3.8049   -0.1388   -0.4009 H         1 GTP         0.1554
     40 H3'         1.6783   -1.7629    0.2715 H         1 GTP         0.0796
     41 HO3'        2.2232   -1.2979    2.3953 H         1 GTP         0.4259
     42 H2'        -0.0011    0.0027    0.0003 H         1 GTP         0.0621
     43 HO2'       -0.6141    0.5574    2.1082 H         1 GTP         0.4287
     44 H1'         1.7826    1.9024    1.6451 H         1 GTP         0.1525
     45 H8          0.7110    2.3472   -1.9295 H         1 GTP         0.2675
     46 HN1        -2.7504    5.7495    2.3282 H         1 GTP         0.3601
     47 HN21       -2.2294    5.1209    4.3678 H         1 GTP         0.4770
     48 HN22       -1.0468    3.8797    4.7192 H         1 GTP         0.4770
     49 H49        -1.0382    4.1687   -2.0954 H         1 GTP         0.5213
@<TRIPOS>BOND
     1    1    2 2
     2    1    3 1
     3    1    4 1
     4    1    5 1
     5    3   33 1
     6    4   34 1
     7    5    6 1
     8    6    7 2
     9    6    8 1
    10    6    9 1
    11    8   35 1
    12    9   10 1
    13   10   11 2
    14   10   12 1
    15   10   13 1
    16   12   36 1
    17   13   14 1
    18   14   15 1
    19   14   37 1
    20   14   38 1
    21   15   16 1
    22   15   17 1
    23   15   39 1
    24   16   21 1
    25   17   18 1
    26   17   19 1
    27   17   40 1
    28   18   41 1
    29   19   20 1
    30   19   21 1
    31   19   42 1
    32   20   43 1
    33   21   22 1
    34   21   44 1
    35   22   23 ar
    36   22   32 ar
    37   23   24 ar
    38   23   45 1
    39   24   25 ar
    40   24   49 1
    41   25   26 ar
    42   25   32 ar
    43   26   27 2
    44   26   28 ar
    45   28   29 ar
    46   28   46 1
    47   29   30 1
    48   29   31 ar
    49   30   47 1
    50   30   48 1
    51   31   32 ar
@<TRIPOS>SUBSTRUCTURE
     1 GTP         1 GROUP 0 A     ****
@<TRIPOS>MOLECULE
[[5-(2-amino-6-oxo-7,8-dihydro-1~{H}-purin-8-ylium-9-yl)-3,4-dihydroxy-tetrahydrofuran-2-yl]methoxy-hydroxy-phosphoryl] phosphono hydrogen phosphate
   49    51     1     0     0
SMALL
USER_CHARGES

@<TRIPOS>ATOM
      1 PG          3.1448   -4.5921   -4.5142 P.3       1 GTP         1.7996
      2 O1G         1.7259   -4.1758   -4.2599 O.2       1 GTP        -0.8112
      3 O2G         3.9857   -5.0181   -3.2015 O.3       1 GTP        -0.7934
      4 O3G         3.3223   -5.8587   -5.5026 O.3       1 GTP        -0.7934
      5 O3B         4.0665   -3.4579   -5.2039 O.3       1 GTP        -0.8067
      6 PB          4.4843   -1.9721   -4.7262 P.3       1 GTP         1.9429
      7 O1B         5.2327   -1.9213   -3.4269 O.2       1 GTP        -0.8303
      8 O2B         5.2717   -1.3628   -5.9997 O.3       1 GTP        -0.7951
      9 O3A         3.0954   -1.1498   -4.7662 O.3       1 GTP        -0.7994
     10 PA          2.7556    0.3903   -4.4163 P.3       1 GTP         1.7871
     11 O1A         3.4961    1.3896   -5.2568 O.2       1 GTP        -0.8044
     12 O2A         1.1459    0.4566   -4.5634 O.3       1 GTP        -0.8076
     13 O5'         3.0192    0.5132   -2.8246 O.3       1 GTP        -0.5620
     14 C5'         2.2816   -0.2918   -1.9206 C.3       1 GTP         0.1570
     15 C4'         2.7248    0.0226   -0.4980 C.3       1 GTP         0.1395
     16 O4'         2.4697    1.4219   -0.2462 O.3       1 GTP        -0.3978
     17 C3'         1.9404   -0.7419    0.5596 C.3       1 GTP         0.0953
     18 O3'         2.7418   -0.8086    1.7389 O.3       1 GTP        -0.5639
     19 C2'         0.7477    0.1630    0.7858 C.3       1 GTP         0.0640
     20 O2'         0.1373   -0.0577    2.0407 O.3       1 GTP        -0.5724
     21 C1'         1.3733    1.5427    0.6747 C.3       1 GTP         0.4182
     22 N9          0.4520    2.5240    0.1767 N.pl3     1 GTP        -0.4563
     23 C8         -0.2009    2.4849   -0.9792 C.ar      1 GTP         0.2386
     24 N7         -0.9840    3.5454   -1.1481 N.pl3     1 GTP        -0.4432
     25 C5         -0.8090    4.3005   -0.0206 C.ar      1 GTP        -0.2050
     26 C6         -1.4206    5.5724    0.3362 C.ar      1 GTP         0.7599
     27 O6         -2.2199    6.1544   -0.3836 O.2       1 GTP        -0.5606
     28 N1         -0.9680    6.0043    1.5817 N.pl3     1 GTP        -0.5020
     29 C2         -0.0474    5.3055    2.3814 C.ar      1 GTP         0.7674
     30 N2          0.2680    5.9024    3.5740 N.pl3     1 GTP        -0.9014
     31 N3          0.4755    4.1601    2.0138 N.2       1 GTP        -0.6718
     32 C4          0.0611    3.6981    0.8001 C.ar      1 GTP         0.3897
     33 HOG2        4.1117   -4.3612   -2.4841 H         1 GTP         0.5007
     34 HOG3        2.9180   -6.7166   -5.2524 H         1 GTP         0.5007
     35 HOB2        5.5480   -0.4218   -5.9811 H         1 GTP         0.5193
     36 HOA2        0.6824    1.2891   -4.3308 H         1 GTP         0.4890
     37 H5'         1.2150   -0.0785   -2.0448 H         1 GTP         0.0511
     38 H5''        2.4641   -1.3458   -2.1540 H         1 GTP         0.0511
     39 H4'         3.8049   -0.1388   -0.4009 H         1 GTP         0.1554
     40 H3'         1.6783   -1.7629    0.2715 H         1 GTP         0.0796
     41 HO3'        2.2232   -1.2979    2.3953 H         1 GTP         0.4259
     42 H2'        -0.0011    0.0027    0.0003 H         1 GTP         0.0621
     43 HO2'       -0.1563   -0.9855    2.0596 H         1 GTP         0.4287
     44 H1'         1.7826    1.9024    1.6451 H         1 GTP         0.1525
     45 H8         -0.1126    1.6906   -1.6997 H         1 GTP         0.2675
     46 HN1        -1.3285    6.8855    1.9361 H         1 GTP         0.3601
     47 HN21        0.9153    5.4446    4.1732 H         1 GTP         0.4770
     48 HN22       -0.1624    6.7706    3.7948 H         1 GTP         0.4770
     49 H49        -1.5768    3.7405   -1.9429 H         1 GTP         0.5213
@<TRIPOS>BOND
     1    1    2 2
     2    1    3 1
     3    1    4 1
     4    1    5 1
     5    3   33 1
     6    4   34 1
     7    5    6 1
     8    6    7 2
     9    6    8 1
    10    6    9 1
    11    8   35 1
    12    9   10 1
    13   10   11 2
    14   10   12 1
    15   10   13 1
    16   12   36 1
    17   13   14 1
    18   14   15 1
    19   14   37 1
    20   14   38 1
    21   15   16 1
    22   15   17 1
    23   15   39 1
    24   16   21 1
    25   17   18 1
    26   17   19 1
    27   17   40 1
    28   18   41 1
    29   19   20 1
    30   19   21 1
    31   19   42 1
    32   20   43 1
    33   21   22 1
    34   21   44 1
    35   22   23 ar
    36   22   32 ar
    37   23   24 ar
    38   23   45 1
    39   24   25 ar
    40   24   49 1
    41   25   26 ar
    42   25   32 ar
    43   26   27 2
    44   26   28 ar
    45   28   29 ar
    46   28   46 1
    47   29   30 1
    48   29   31 ar
    49   30   47 1
    50   30   48 1
    51   31   32 ar
@<TRIPOS>SUBSTRUCTURE
     1 GTP         1 GROUP 0 A     ****
@<TRIPOS>MOLECULE
[[5-(2-amino-6-oxo-7,8-dihydro-1~{H}-purin-8-ylium-9-yl)-3,4-dihydroxy-tetrahydrofuran-2-yl]methoxy-hydroxy-phosphoryl] phosphono hydrogen phosphate
   49    51     1     0     0
SMALL
USER_CHARGES

@<TRIPOS>ATOM
      1 PG          1.8482   -4.9048   -4.0412 P.3       1 GTP         1.7996
      2 O1G         0.6284   -4.0361   -3.9489 O.2       1 GTP        -0.8112
      3 O2G         2.4339   -5.4259   -2.6280 O.3       1 GTP        -0.7934
      4 O3G         1.6603   -6.2642   -4.8953 O.3       1 GTP        -0.7934
      5 O3B         3.1229   -4.2039   -4.7451 O.3       1 GTP        -0.8067
      6 PB          3.9719   -2.8827   -4.3653 P.3       1 GTP         1.9429
      7 O1B         4.6249   -2.9268   -3.0153 O.2       1 GTP        -0.8303
      8 O2B         4.9818   -2.6989   -5.6141 O.3       1 GTP        -0.7951
      9 O3A         2.9276   -1.6737   -4.5982 O.3       1 GTP        -0.7994
     10 PA          3.0852   -0.0762   -4.4159 P.3       1 GTP         1.7871
     11 O1A         4.1533    0.5381   -5.2733 O.2       1 GTP        -0.8044
     12 O2A         1.5937    0.4784   -4.7077 O.3       1 GTP        -0.8076
     13 O5'         3.2876    0.1332   -2.8242 O.3       1 GTP        -0.5620
     14 C5'         2.2816   -0.2918   -1.9206 C.3       1 GTP         0.1570
     15 C4'         2.7248    0.0226   -0.4980 C.3       1 GTP         0.1395
     16 O4'         2.4697    1.4219   -0.2462 O.3       1 GTP        -0.3978
     17 C3'         1.9404   -0.7419    0.5596 C.3       1 GTP         0.0953
     18 O3'         2.7418   -0.8086    1.7389 O.3       1 GTP        -0.5639
     19 C2'         0.7477    0.1630    0.7858 C.3       1 GTP         0.0640
     20 O2'         0.1373   -0.0577    2.0407 O.3       1 GTP        -0.5724
     21 C1'         1.3733    1.5427    0.6747 C.3       1 GTP         0.4182
     22 N9          0.4520    2.5240    0.1767 N.pl3     1 GTP        -0.4563
     23 C8          0.2203    2.8205   -1.0970 C.ar      1 GTP         0.2386
     24 N7         -0.6947    3.7752   -1.2304 N.pl3     1 GTP        -0.4432
     25 C5         -1.0607    4.0987    0.0476 C.ar      1 GTP        -0.2050
     26 C6         -2.0310    5.0839    0.5029 C.ar      1 GTP         0.7599
     27 O6         -2.6779    5.7867   -0.2609 O.2       1 GTP        -0.5606
     28 N1         -2.1030    5.0975    1.8948 N.pl3     1 GTP        -0.5020
     29 C2         -1.3422    4.2721    2.7403 C.ar      1 GTP         0.7674
     30 N2         -1.5624    4.4419    4.0823 N.pl3     1 GTP        -0.9014
     31 N3         -0.4796    3.3981    2.2792 N.2       1 GTP        -0.6718
     32 C4         -0.3754    3.3496    0.9208 C.ar      1 GTP         0.3897
     33 HOG2        1.8613   -5.9724   -2.0488 H         1 GTP         0.5007
     34 HOG3        1.4050   -6.1998   -5.8401 H         1 GTP         0.5007
     35 HOB2        5.6768   -3.3742   -5.7659 H         1 GTP         0.5193
     36 HOA2        1.2130    0.3658   -5.6046 H         1 GTP         0.4890
     37 H5'         1.3495    0.2323   -2.1554 H         1 GTP         0.0511
     38 H5''        2.1262   -1.3685   -2.0437 H         1 GTP         0.0511
     39 H4'         3.8049   -0.1388   -0.4009 H         1 GTP         0.1554
     40 H3'         1.6783   -1.7629    0.2715 H         1 GTP         0.0796
     41 HO3'        2.2232   -1.2979    2.3953 H         1 GTP         0.4259
     42 H2'        -0.0011    0.0027    0.0003 H         1 GTP         0.0621
     43 HO2'       -0.1563   -0.9855    2.0596 H         1 GTP         0.4287
     44 H1'         1.7826    1.9024    1.6451 H         1 GTP         0.1525
     45 H8          0.7110    2.3472   -1.9295 H         1 GTP         0.2675
     46 HN1        -2.7504    5.7495    2.3282 H         1 GTP         0.3601
     47 HN21       -1.0467    3.8796    4.7190 H         1 GTP         0.4770
     48 HN22       -2.2294    5.1209    4.3680 H         1 GTP         0.4770
     49 H49        -1.0382    4.1687   -2.0954 H         1 GTP         0.5213
@<TRIPOS>BOND
     1    1    2 2
     2    1    3 1
     3    1    4 1
     4    1    5 1
     5    3   33 1
     6    4   34 1
     7    5    6 1
     8    6    7 2
     9    6    8 1
    10    6    9 1
    11    8   35 1
    12    9   10 1
    13   10   11 2
    14   10   12 1
    15   10   13 1
    16   12   36 1
    17   13   14 1
    18   14   15 1
    19   14   37 1
    20   14   38 1
    21   15   16 1
    22   15   17 1
    23   15   39 1
    24   16   21 1
    25   17   18 1
    26   17   19 1
    27   17   40 1
    28   18   41 1
    29   19   20 1
    30   19   21 1
    31   19   42 1
    32   20   43 1
    33   21   22 1
    34   21   44 1
    35   22   23 ar
    36   22   32 ar
    37   23   24 ar
    38   23   45 1
    39   24   25 ar
    40   24   49 1
    41   25   26 ar
    42   25   32 ar
    43   26   27 2
    44   26   28 ar
    45   28   29 ar
    46   28   46 1
    47   29   30 1
    48   29   31 ar
    49   30   47 1
    50   30   48 1
    51   31   32 ar
@<TRIPOS>SUBSTRUCTURE
     1 GTP         1 GROUP 0 A     ****
@<TRIPOS>MOLECULE
[[5-(2-amino-6-oxo-7,8-dihydro-1~{H}-purin-8-ylium-9-yl)-3,4-dihydroxy-tetrahydrofuran-2-yl]methoxy-hydroxy-phosphoryl] phosphono hydrogen phosphate
   49    51     1     0     0
SMALL
USER_CHARGES

@<TRIPOS>ATOM
      1 PG          3.4678   -4.8666   -6.5494 P.3       1 GTP         1.7996
      2 O1G         2.1049   -5.3708   -6.9230 O.2       1 GTP        -0.8112
      3 O2G         4.3343   -5.8520   -5.6060 O.3       1 GTP        -0.7934
      4 O3G         4.4559   -4.5715   -7.7940 O.3       1 GTP        -0.7934
      5 O3B         3.4703   -3.4675   -5.7406 O.3       1 GTP        -0.8067
      6 PB          2.9251   -1.9973   -6.1298 P.3       1 GTP         1.9429
      7 O1B         3.5597   -1.3990   -7.3506 O.2       1 GTP        -0.8303
      8 O2B         1.3217   -2.1869   -6.2090 O.3       1 GTP        -0.7951
      9 O3A         3.0954   -1.1498   -4.7662 O.3       1 GTP        -0.7994
     10 PA          2.7556    0.3903   -4.4163 P.3       1 GTP         1.7871
     11 O1A         3.4961    1.3896   -5.2568 O.2       1 GTP        -0.8044
     12 O2A         1.1459    0.4566   -4.5634 O.3       1 GTP        -0.8076
     13 O5'         3.0192    0.5132   -2.8246 O.3       1 GTP        -0.5620
     14 C5'         2.2816   -0.2918   -1.9206 C.3       1 GTP         0.1570
     15 C4'         2.7248    0.0226   -0.4980 C.3       1 GTP         0.1395
     16 O4'         2.4697    1.4219   -0.2462 O.3       1 GTP        -0.3978
     17 C3'         1.9404   -0.7419    0.5596 C.3       1 GTP         0.0953
     18 O3'         2.7418   -0.8086    1.7389 O.3       1 GTP        -0.5639
     19 C2'         0.7477    0.1630    0.7858 C.3       1 GTP         0.0640
     20 O2'         0.1373   -0.0577    2.0407 O.3       1 GTP        -0.5724
     21 C1'         1.3733    1.5427    0.6747 C.3       1 GTP         0.4182
     22 N9          0.4520    2.5240    0.1767 N.pl3     1 GTP        -0.4563
     23 C8          0.2203    2.8205   -1.0970 C.ar      1 GTP         0.2386
     24 N7         -0.6947    3.7752   -1.2304 N.pl3     1 GTP        -0.4432
     25 C5         -1.0607    4.0987    0.0476 C.ar      1 GTP        -0.2050
     26 C6         -2.0310    5.0839    0.5029 C.ar      1 GTP         0.7599
     27 O6         -2.6779    5.7867   -0.2609 O.2       1 GTP        -0.5606
     28 N1         -2.1030    5.0975    1.8948 N.pl3     1 GTP        -0.5020
     29 C2         -1.3422    4.2721    2.7403 C.ar      1 GTP         0.7674
     30 N2         -1.5624    4.4419    4.0823 N.pl3     1 GTP        -0.9014
     31 N3         -0.4796    3.3981    2.2792 N.2       1 GTP        -0.6718
     32 C4         -0.3754    3.3496    0.9208 C.ar      1 GTP         0.3897
     33 HOG2        4.5527   -6.7510   -5.9317 H         1 GTP         0.5007
     34 HOG3        4.1889   -3.9080   -8.4653 H         1 GTP         0.5007
     35 HOB2        0.7564   -1.3968   -6.3439 H         1 GTP         0.5193
     36 HOA2        0.6824    1.2891   -4.3308 H         1 GTP         0.4890
     37 H5'         1.2150   -0.0785   -2.0448 H         1 GTP         0.0511
     38 H5''        2.4641   -1.3458   -2.1540 H         1 GTP         0.0511
     39 H4'         3.8049   -0.1388   -0.4009 H         1 GTP         0.1554
     40 H3'         1.6783   -1.7629    0.2715 H         1 GTP         0.0796
     41 HO3'        2.2232   -1.2979    2.3953 H         1 GTP         0.4259
     42 H2'        -0.0011    0.0027    0.0003 H         1 GTP         0.0621
     43 HO2'       -0.6141    0.5574    2.1082 H         1 GTP         0.4287
     44 H1'         1.7826    1.9024    1.6451 H         1 GTP         0.1525
     45 H8          0.7110    2.3472   -1.9295 H         1 GTP         0.2675
     46 HN1        -2.7504    5.7495    2.3282 H         1 GTP         0.3601
     47 HN21       -1.0467    3.8796    4.7190 H         1 GTP         0.4770
     48 HN22       -2.2294    5.1209    4.3680 H         1 GTP         0.4770
     49 H49        -1.0382    4.1687   -2.0954 H         1 GTP         0.5213
@<TRIPOS>BOND
     1    1    2 2
     2    1    3 1
     3    1    4 1
     4    1    5 1
     5    3   33 1
     6    4   34 1
     7    5    6 1
     8    6    7 2
     9    6    8 1
    10    6    9 1
    11    8   35 1
    12    9   10 1
    13   10   11 2
    14   10   12 1
    15   10   13 1
    16   12   36 1
    17   13   14 1
    18   14   15 1
    19   14   37 1
    20   14   38 1
    21   15   16 1
    22   15   17 1
    23   15   39 1
    24   16   21 1
    25   17   18 1
    26   17   19 1
    27   17   40 1
    28   18   41 1
    29   19   20 1
    30   19   21 1
    31   19   42 1
    32   20   43 1
    33   21   22 1
    34   21   44 1
    35   22   23 ar
    36   22   32 ar
    37   23   24 ar
    38   23   45 1
    39   24   25 ar
    40   24   49 1
    41   25   26 ar
    42   25   32 ar
    43   26   27 2
    44   26   28 ar
    45   28   29 ar
    46   28   46 1
    47   29   30 1
    48   29   31 ar
    49   30   47 1
    50   30   48 1
    51   31   32 ar
@<TRIPOS>SUBSTRUCTURE
     1 GTP         1 GROUP 0 A     ****
@<TRIPOS>MOLECULE
[[5-(2-amino-6-oxo-7,8-dihydro-1~{H}-purin-8-ylium-9-yl)-3,4-dihydroxy-tetrahydrofuran-2-yl]methoxy-hydroxy-phosphoryl] phosphono hydrogen phosphate
   49    51     1     0     0
SMALL
USER_CHARGES

@<TRIPOS>ATOM
      1 PG          3.3515   -4.5316   -5.0527 P.3       1 GTP         1.7996
      2 O1G         4.1183   -4.0551   -3.8544 O.2       1 GTP        -0.8112
      3 O2G         4.2238   -4.7234   -6.3996 O.3       1 GTP        -0.7934
      4 O3G         2.6157   -5.9597   -4.8739 O.3       1 GTP        -0.7934
      5 O3B         2.1490   -3.5559   -5.5150 O.3       1 GTP        -0.8067
      6 PB          2.1380   -2.0142   -5.9982 P.3       1 GTP         1.9429
      7 O1B         2.9570   -1.7384   -7.2246 O.2       1 GTP        -0.8303
      8 O2B         0.5661   -1.6590   -6.1246 O.3       1 GTP        -0.7951
      9 O3A         2.5619   -1.1926   -4.6746 O.3       1 GTP        -0.7994
     10 PA          2.7556    0.3903   -4.4163 P.3       1 GTP         1.7871
     11 O1A         3.8033    1.0305   -5.2800 O.2       1 GTP        -0.8044
     12 O2A         1.2651    0.9841   -4.6238 O.3       1 GTP        -0.8076
     13 O5'         3.0192    0.5132   -2.8246 O.3       1 GTP        -0.5620
     14 C5'         2.2816   -0.2918   -1.9206 C.3       1 GTP         0.1570
     15 C4'         2.7248    0.0226   -0.4980 C.3       1 GTP         0.1395
     16 O4'         2.4697    1.4219   -0.2462 O.3       1 GTP        -0.3978
     17 C3'         1.9404   -0.7419    0.5596 C.3       1 GTP         0.0953
     18 O3'         2.7418   -0.8086    1.7389 O.3       1 GTP        -0.5639
     19 C2'         0.7477    0.1630    0.7858 C.3       1 GTP         0.0640
     20 O2'         0.1373   -0.0577    2.0407 O.3       1 GTP        -0.5724
     21 C1'         1.3733    1.5427    0.6747 C.3       1 GTP         0.4182
     22 N9          0.4520    2.5240    0.1767 N.pl3     1 GTP        -0.4563
     23 C8          0.2203    2.8205   -1.0970 C.ar      1 GTP         0.2386
     24 N7         -0.6947    3.7752   -1.2304 N.pl3     1 GTP        -0.4432
     25 C5         -1.0607    4.0987    0.0476 C.ar      1 GTP        -0.2050
     26 C6         -2.0310    5.0839    0.5029 C.ar      1 GTP         0.7599
     27 O6         -2.6779    5.7867   -0.2609 O.2       1 GTP        -0.5606
     28 N1         -2.1030    5.0975    1.8948 N.pl3     1 GTP        -0.5020
     29 C2         -1.3422    4.2721    2.7403 C.ar      1 GTP         0.7674
     30 N2         -1.5624    4.4419    4.0823 N.pl3     1 GTP        -0.9014
     31 N3         -0.4796    3.3981    2.2792 N.2       1 GTP        -0.6718
     32 C4         -0.3754    3.3496    0.9208 C.ar      1 GTP         0.3897
     33 HOG2        4.9719   -5.3577   -6.3949 H         1 GTP         0.5007
     34 HOG3        1.9418   -6.0616   -4.1685 H         1 GTP         0.5007
     35 HOB2        0.0309   -2.1113   -6.8109 H         1 GTP         0.5193
     36 HOA2        1.1058    1.9363   -4.4509 H         1 GTP         0.4890
     37 H5'         1.2150   -0.0785   -2.0448 H         1 GTP         0.0511
     38 H5''        2.4641   -1.3458   -2.1540 H         1 GTP         0.0511
     39 H4'         3.8049   -0.1388   -0.4009 H         1 GTP         0.1554
     40 H3'         1.6783   -1.7629    0.2715 H         1 GTP         0.0796
     41 HO3'        2.2232   -1.2979    2.3953 H         1 GTP         0.4259
     42 H2'        -0.0011    0.0027    0.0003 H         1 GTP         0.0621
     43 HO2'       -0.1563   -0.9855    2.0596 H         1 GTP         0.4287
     44 H1'         1.7826    1.9024    1.6451 H         1 GTP         0.1525
     45 H8          0.7110    2.3472   -1.9295 H         1 GTP         0.2675
     46 HN1        -2.7504    5.7495    2.3282 H         1 GTP         0.3601
     47 HN21       -1.0467    3.8796    4.7190 H         1 GTP         0.4770
     48 HN22       -2.2294    5.1209    4.3680 H         1 GTP         0.4770
     49 H49        -1.0382    4.1687   -2.0954 H         1 GTP         0.5213
@<TRIPOS>BOND
     1    1    2 2
     2    1    3 1
     3    1    4 1
     4    1    5 1
     5    3   33 1
     6    4   34 1
     7    5    6 1
     8    6    7 2
     9    6    8 1
    10    6    9 1
    11    8   35 1
    12    9   10 1
    13   10   11 2
    14   10   12 1
    15   10   13 1
    16   12   36 1
    17   13   14 1
    18   14   15 1
    19   14   37 1
    20   14   38 1
    21   15   16 1
    22   15   17 1
    23   15   39 1
    24   16   21 1
    25   17   18 1
    26   17   19 1
    27   17   40 1
    28   18   41 1
    29   19   20 1
    30   19   21 1
    31   19   42 1
    32   20   43 1
    33   21   22 1
    34   21   44 1
    35   22   23 ar
    36   22   32 ar
    37   23   24 ar
    38   23   45 1
    39   24   25 ar
    40   24   49 1
    41   25   26 ar
    42   25   32 ar
    43   26   27 2
    44   26   28 ar
    45   28   29 ar
    46   28   46 1
    47   29   30 1
    48   29   31 ar
    49   30   47 1
    50   30   48 1
    51   31   32 ar
@<TRIPOS>SUBSTRUCTURE
     1 GTP         1 GROUP 0 A     ****
@<TRIPOS>MOLECULE
[[5-(2-amino-6-oxo-7,8-dihydro-1~{H}-purin-8-ylium-9-yl)-3,4-dihydroxy-tetrahydrofuran-2-yl]methoxy-hydroxy-phosphoryl] phosphono hydrogen phosphate
   49    51     1     0     0
SMALL
USER_CHARGES

@<TRIPOS>ATOM
      1 PG         -2.3420   -1.8239   -3.4168 P.3       1 GTP         1.7996
      2 O1G        -1.7949   -0.5397   -3.9668 O.2       1 GTP        -0.8112
      3 O2G        -2.6745   -1.8122   -1.8354 O.3       1 GTP        -0.7934
      4 O3G        -3.7241   -2.3252   -4.0886 O.3       1 GTP        -0.7934
      5 O3B        -1.3668   -3.1008   -3.5903 O.3       1 GTP        -0.8067
      6 PB          0.1291   -3.3944   -3.0552 P.3       1 GTP         1.9429
      7 O1B         0.2742   -3.3699   -1.5621 O.2       1 GTP        -0.8303
      8 O2B         0.5269   -4.7919   -3.7637 O.3       1 GTP        -0.7951
      9 O3A         1.0421   -2.3368   -3.8642 O.3       1 GTP        -0.7994
     10 PA          2.6333   -2.0590   -3.8369 P.3       1 GTP         1.7871
     11 O1A         3.4709   -3.2427   -4.2251 O.2       1 GTP        -0.8044
     12 O2A         2.8015   -0.7752   -4.8069 O.3       1 GTP        -0.8076
     13 O5'         2.9196   -1.4816   -2.3527 O.3       1 GTP        -0.5620
     14 C5'         2.2816   -0.2918   -1.9206 C.3       1 GTP         0.1570
     15 C4'         2.7248    0.0226   -0.4980 C.3       1 GTP         0.1395
     16 O4'         2.4697    1.4219   -0.2462 O.3       1 GTP        -0.3978
     17 C3'         1.9404   -0.7419    0.5596 C.3       1 GTP         0.0953
     18 O3'         2.7418   -0.8086    1.7389 O.3       1 GTP        -0.5639
     19 C2'         0.7477    0.1630    0.7858 C.3       1 GTP         0.0640
     20 O2'         0.1373   -0.0577    2.0407 O.3       1 GTP        -0.5724
     21 C1'         1.3733    1.5427    0.6747 C.3       1 GTP         0.4182
     22 N9          0.4520    2.5240    0.1767 N.pl3     1 GTP        -0.4563
     23 C8         -0.2009    2.4849   -0.9792 C.ar      1 GTP         0.2386
     24 N7         -0.9840    3.5454   -1.1481 N.pl3     1 GTP        -0.4432
     25 C5         -0.8090    4.3005   -0.0206 C.ar      1 GTP        -0.2050
     26 C6         -1.4206    5.5724    0.3362 C.ar      1 GTP         0.7599
     27 O6         -2.2199    6.1544   -0.3836 O.2       1 GTP        -0.5606
     28 N1         -0.9680    6.0043    1.5817 N.pl3     1 GTP        -0.5020
     29 C2         -0.0474    5.3055    2.3814 C.ar      1 GTP         0.7674
     30 N2          0.2680    5.9024    3.5740 N.pl3     1 GTP        -0.9014
     31 N3          0.4755    4.1601    2.0138 N.2       1 GTP        -0.6718
     32 C4          0.0611    3.6981    0.8001 C.ar      1 GTP         0.3897
     33 HOG2       -1.9502   -1.6324   -1.1989 H         1 GTP         0.5007
     34 HOG3       -3.7440   -2.5110   -5.0515 H         1 GTP         0.5007
     35 HOB2        1.4405   -5.1334   -3.6602 H         1 GTP         0.5193
     36 HOA2        3.6874   -0.3651   -4.9013 H         1 GTP         0.4890
     37 H5'         2.5578    0.5242   -2.5963 H         1 GTP         0.0511
     38 H5''        1.1971   -0.4363   -1.9604 H         1 GTP         0.0511
     39 H4'         3.8049   -0.1388   -0.4009 H         1 GTP         0.1554
     40 H3'         1.6783   -1.7629    0.2715 H         1 GTP         0.0796
     41 HO3'        2.2232   -1.2979    2.3953 H         1 GTP         0.4259
     42 H2'        -0.0011    0.0027    0.0003 H         1 GTP         0.0621
     43 HO2'       -0.1563   -0.9855    2.0596 H         1 GTP         0.4287
     44 H1'         1.7826    1.9024    1.6451 H         1 GTP         0.1525
     45 H8         -0.1126    1.6906   -1.6997 H         1 GTP         0.2675
     46 HN1        -1.3285    6.8855    1.9361 H         1 GTP         0.3601
     47 HN21        0.9153    5.4446    4.1732 H         1 GTP         0.4770
     48 HN22       -0.1624    6.7706    3.7948 H         1 GTP         0.4770
     49 H49        -1.5768    3.7405   -1.9429 H         1 GTP         0.5213
@<TRIPOS>BOND
     1    1    2 2
     2    1    3 1
     3    1    4 1
     4    1    5 1
     5    3   33 1
     6    4   34 1
     7    5    6 1
     8    6    7 2
     9    6    8 1
    10    6    9 1
    11    8   35 1
    12    9   10 1
    13   10   11 2
    14   10   12 1
    15   10   13 1
    16   12   36 1
    17   13   14 1
    18   14   15 1
    19   14   37 1
    20   14   38 1
    21   15   16 1
    22   15   17 1
    23   15   39 1
    24   16   21 1
    25   17   18 1
    26   17   19 1
    27   17   40 1
    28   18   41 1
    29   19   20 1
    30   19   21 1
    31   19   42 1
    32   20   43 1
    33   21   22 1
    34   21   44 1
    35   22   23 ar
    36   22   32 ar
    37   23   24 ar
    38   23   45 1
    39   24   25 ar
    40   24   49 1
    41   25   26 ar
    42   25   32 ar
    43   26   27 2
    44   26   28 ar
    45   28   29 ar
    46   28   46 1
    47   29   30 1
    48   29   31 ar
    49   30   47 1
    50   30   48 1
    51   31   32 ar
@<TRIPOS>SUBSTRUCTURE
     1 GTP         1 GROUP 0 A     ****
@<TRIPOS>MOLECULE
[[5-(2-amino-6-oxo-7,8-dihydro-1~{H}-purin-8-ylium-9-yl)-3,4-dihydroxy-tetrahydrofuran-2-yl]methoxy-hydroxy-phosphoryl] phosphono hydrogen phosphate
   49    51     1     0     0
SMALL
USER_CHARGES

@<TRIPOS>ATOM
      1 PG          3.5522   -5.7548   -4.8932 P.3       1 GTP         1.7996
      2 O1G         4.1224   -6.3677   -3.6481 O.2       1 GTP        -0.8112
      3 O2G         4.5347   -5.7559   -6.1763 O.3       1 GTP        -0.7934
      4 O3G         2.2058   -6.4555   -5.4492 O.3       1 GTP        -0.7934
      5 O3B         3.1229   -4.2039   -4.7451 O.3       1 GTP        -0.8067
      6 PB          3.9719   -2.8827   -4.3653 P.3       1 GTP         1.9429
      7 O1B         4.6249   -2.9268   -3.0153 O.2       1 GTP        -0.8303
      8 O2B         4.9818   -2.6989   -5.6141 O.3       1 GTP        -0.7951
      9 O3A         2.9276   -1.6737   -4.5982 O.3       1 GTP        -0.7994
     10 PA          3.0852   -0.0762   -4.4159 P.3       1 GTP         1.7871
     11 O1A         4.1533    0.5381   -5.2733 O.2       1 GTP        -0.8044
     12 O2A         1.5937    0.4784   -4.7077 O.3       1 GTP        -0.8076
     13 O5'         3.2876    0.1332   -2.8242 O.3       1 GTP        -0.5620
     14 C5'         2.2816   -0.2918   -1.9206 C.3       1 GTP         0.1570
     15 C4'         2.7248    0.0226   -0.4980 C.3       1 GTP         0.1395
     16 O4'         2.4697    1.4219   -0.2462 O.3       1 GTP        -0.3978
     17 C3'         1.9404   -0.7419    0.5596 C.3       1 GTP         0.0953
     18 O3'         2.7418   -0.8086    1.7389 O.3       1 GTP        -0.5639
     19 C2'         0.7477    0.1630    0.7858 C.3       1 GTP         0.0640
     20 O2'         0.1373   -0.0577    2.0407 O.3       1 GTP        -0.5724
     21 C1'         1.3733    1.5427    0.6747 C.3       1 GTP         0.4182
     22 N9          0.4520    2.5240    0.1767 N.pl3     1 GTP        -0.4563
     23 C8          0.2203    2.8205   -1.0970 C.ar      1 GTP         0.2386
     24 N7         -0.6947    3.7752   -1.2304 N.pl3     1 GTP        -0.4432
     25 C5         -1.0607    4.0987    0.0476 C.ar      1 GTP        -0.2050
     26 C6         -2.0310    5.0839    0.5029 C.ar      1 GTP         0.7599
     27 O6         -2.6779    5.7867   -0.2609 O.2       1 GTP        -0.5606
     28 N1         -2.1030    5.0975    1.8948 N.pl3     1 GTP        -0.5020
     29 C2         -1.3422    4.2721    2.7403 C.ar      1 GTP         0.7674
     30 N2         -1.5624    4.4419    4.0823 N.pl3     1 GTP        -0.9014
     31 N3         -0.4796    3.3981    2.2792 N.2       1 GTP        -0.6718
     32 C4         -0.3754    3.3496    0.9208 C.ar      1 GTP         0.3897
     33 HOG2        4.8602   -6.6130   -6.5247 H         1 GTP         0.5007
     34 HOG3        2.2335   -7.4026   -5.7030 H         1 GTP         0.5007
     35 HOB2        5.6768   -3.3742   -5.7659 H         1 GTP         0.5193
     36 HOA2        1.4122    1.4351   -4.5904 H         1 GTP         0.4890
     37 H5'         1.3495    0.2323   -2.1554 H         1 GTP         0.0511
     38 H5''        2.1262   -1.3685   -2.0437 H         1 GTP         0.0511
     39 H4'         3.8049   -0.1388   -0.4009 H         1 GTP         0.1554
     40 H3'         1.6783   -1.7629    0.2715 H         1 GTP         0.0796
     41 HO3'        2.2232   -1.2979    2.3953 H         1 GTP         0.4259
     42 H2'        -0.0011    0.0027    0.0003 H         1 GTP         0.0621
     43 HO2'       -0.1563   -0.9855    2.0596 H         1 GTP         0.4287
     44 H1'         1.7826    1.9024    1.6451 H         1 GTP         0.1525
     45 H8          0.7110    2.3472   -1.9295 H         1 GTP         0.2675
     46 HN1        -2.7504    5.7495    2.3282 H         1 GTP         0.3601
     47 HN21       -1.0467    3.8796    4.7190 H         1 GTP         0.4770
     48 HN22       -2.2294    5.1209    4.3680 H         1 GTP         0.4770
     49 H49        -1.0382    4.1687   -2.0954 H         1 GTP         0.5213
@<TRIPOS>BOND
     1    1    2 2
     2    1    3 1
     3    1    4 1
     4    1    5 1
     5    3   33 1
     6    4   34 1
     7    5    6 1
     8    6    7 2
     9    6    8 1
    10    6    9 1
    11    8   35 1
    12    9   10 1
    13   10   11 2
    14   10   12 1
    15   10   13 1
    16   12   36 1
    17   13   14 1
    18   14   15 1
    19   14   37 1
    20   14   38 1
    21   15   16 1
    22   15   17 1
    23   15   39 1
    24   16   21 1
    25   17   18 1
    26   17   19 1
    27   17   40 1
    28   18   41 1
    29   19   20 1
    30   19   21 1
    31   19   42 1
    32   20   43 1
    33   21   22 1
    34   21   44 1
    35   22   23 ar
    36   22   32 ar
    37   23   24 ar
    38   23   45 1
    39   24   25 ar
    40   24   49 1
    41   25   26 ar
    42   25   32 ar
    43   26   27 2
    44   26   28 ar
    45   28   29 ar
    46   28   46 1
    47   29   30 1
    48   29   31 ar
    49   30   47 1
    50   30   48 1
    51   31   32 ar
@<TRIPOS>SUBSTRUCTURE
     1 GTP         1 GROUP 0 A     ****
@<TRIPOS>MOLECULE
[[5-(2-amino-6-oxo-7,8-dihydro-1~{H}-purin-8-ylium-9-yl)-3,4-dihydroxy-tetrahydrofuran-2-yl]methoxy-hydroxy-phosphoryl] phosphono hydrogen phosphate
   49    51     1     0     0
SMALL
USER_CHARGES

@<TRIPOS>ATOM
      1 PG         -2.6467   -0.9078   -3.9852 P.3       1 GTP         1.7996
      2 O1G        -2.2299   -1.0181   -2.5482 O.2       1 GTP        -0.8112
      3 O2G        -3.4529   -2.1804   -4.5704 O.3       1 GTP        -0.7934
      4 O3G        -3.6154    0.3407   -4.3255 O.3       1 GTP        -0.7934
      5 O3B        -1.4267   -0.7191   -5.0281 O.3       1 GTP        -0.8067
      6 PB         -0.1471   -1.6450   -5.3680 P.3       1 GTP         1.9429
      7 O1B        -0.4853   -3.0179   -5.8695 O.2       1 GTP        -0.8303
      8 O2B         0.7297   -0.7383   -6.3790 O.3       1 GTP        -0.7951
      9 O3A         0.7366   -1.5914   -4.0178 O.3       1 GTP        -0.7994
     10 PA          2.1468   -2.2811   -3.6362 P.3       1 GTP         1.7871
     11 O1A         2.1340   -3.7809   -3.6965 O.2       1 GTP        -0.8044
     12 O2A         3.1891   -1.5809   -4.6563 O.3       1 GTP        -0.8076
     13 O5'         2.5234   -1.6624   -2.1893 O.3       1 GTP        -0.5620
     14 C5'         2.2816   -0.2918   -1.9206 C.3       1 GTP         0.1570
     15 C4'         2.7248    0.0226   -0.4980 C.3       1 GTP         0.1395
     16 O4'         2.4697    1.4219   -0.2462 O.3       1 GTP        -0.3978
     17 C3'         1.9404   -0.7419    0.5596 C.3       1 GTP         0.0953
     18 O3'         2.7418   -0.8086    1.7389 O.3       1 GTP        -0.5639
     19 C2'         0.7477    0.1630    0.7858 C.3       1 GTP         0.0640
     20 O2'         0.1373   -0.0577    2.0407 O.3       1 GTP        -0.5724
     21 C1'         1.3733    1.5427    0.6747 C.3       1 GTP         0.4182
     22 N9          0.4520    2.5240    0.1767 N.pl3     1 GTP        -0.4563
     23 C8          0.2203    2.8205   -1.0970 C.ar      1 GTP         0.2386
     24 N7         -0.6947    3.7752   -1.2304 N.pl3     1 GTP        -0.4432
     25 C5         -1.0607    4.0987    0.0476 C.ar      1 GTP        -0.2050
     26 C6         -2.0310    5.0839    0.5029 C.ar      1 GTP         0.7599
     27 O6         -2.6779    5.7867   -0.2609 O.2       1 GTP        -0.5606
     28 N1         -2.1030    5.0975    1.8948 N.pl3     1 GTP        -0.5020
     29 C2         -1.3422    4.2721    2.7403 C.ar      1 GTP         0.7674
     30 N2         -1.5624    4.4419    4.0823 N.pl3     1 GTP        -0.9014
     31 N3         -0.4796    3.3981    2.2792 N.2       1 GTP        -0.6718
     32 C4         -0.3754    3.3496    0.9208 C.ar      1 GTP         0.3897
     33 HOG2       -4.3011   -2.4391   -4.1513 H         1 GTP         0.5007
     34 HOG3       -3.2941    1.2514   -4.1539 H         1 GTP         0.5007
     35 HOB2        0.3654   -0.5279   -7.2651 H         1 GTP         0.5193
     36 HOA2        4.1443   -1.7879   -4.5743 H         1 GTP         0.4890
     37 H5'         2.8429    0.3147   -2.6388 H         1 GTP         0.0511
     38 H5''        1.2125   -0.0898   -2.0417 H         1 GTP         0.0511
     39 H4'         3.8049   -0.1388   -0.4009 H         1 GTP         0.1554
     40 H3'         1.6783   -1.7629    0.2715 H         1 GTP         0.0796
     41 HO3'        2.2232   -1.2979    2.3953 H         1 GTP         0.4259
     42 H2'        -0.0011    0.0027    0.0003 H         1 GTP         0.0621
     43 HO2'       -0.1563   -0.9855    2.0596 H         1 GTP         0.4287
     44 H1'         1.7826    1.9024    1.6451 H         1 GTP         0.1525
     45 H8          0.7110    2.3472   -1.9295 H         1 GTP         0.2675
     46 HN1        -2.7504    5.7495    2.3282 H         1 GTP         0.3601
     47 HN21       -1.0467    3.8796    4.7190 H         1 GTP         0.4770
     48 HN22       -2.2294    5.1209    4.3680 H         1 GTP         0.4770
     49 H49        -1.0382    4.1687   -2.0954 H         1 GTP         0.5213
@<TRIPOS>BOND
     1    1    2 2
     2    1    3 1
     3    1    4 1
     4    1    5 1
     5    3   33 1
     6    4   34 1
     7    5    6 1
     8    6    7 2
     9    6    8 1
    10    6    9 1
    11    8   35 1
    12    9   10 1
    13   10   11 2
    14   10   12 1
    15   10   13 1
    16   12   36 1
    17   13   14 1
    18   14   15 1
    19   14   37 1
    20   14   38 1
    21   15   16 1
    22   15   17 1
    23   15   39 1
    24   16   21 1
    25   17   18 1
    26   17   19 1
    27   17   40 1
    28   18   41 1
    29   19   20 1
    30   19   21 1
    31   19   42 1
    32   20   43 1
    33   21   22 1
    34   21   44 1
    35   22   23 ar
    36   22   32 ar
    37   23   24 ar
    38   23   45 1
    39   24   25 ar
    40   24   49 1
    41   25   26 ar
    42   25   32 ar
    43   26   27 2
    44   26   28 ar
    45   28   29 ar
    46   28   46 1
    47   29   30 1
    48   29   31 ar
    49   30   47 1
    50   30   48 1
    51   31   32 ar
@<TRIPOS>SUBSTRUCTURE
     1 GTP         1 GROUP 0 A     ****
@<TRIPOS>MOLECULE
[[5-(2-amino-6-oxo-7,8-dihydro-1~{H}-purin-8-ylium-9-yl)-3,4-dihydroxy-tetrahydrofuran-2-yl]methoxy-hydroxy-phosphoryl] phosphono hydrogen phosphate
   49    51     1     0     0
SMALL
USER_CHARGES

@<TRIPOS>ATOM
      1 PG         -2.5007   -0.4413   -3.6730 P.3       1 GTP         1.7996
      2 O1G        -2.7943    0.1419   -2.3222 O.2       1 GTP        -0.8112
      3 O2G        -3.7517   -0.4807   -4.6953 O.3       1 GTP        -0.7934
      4 O3G        -1.3503    0.3208   -4.5147 O.3       1 GTP        -0.7934
      5 O3B        -1.9825   -1.9718   -3.6480 O.3       1 GTP        -0.8067
      6 PB         -0.6931   -2.6614   -2.9611 P.3       1 GTP         1.9429
      7 O1B        -0.6290   -2.5182   -1.4690 O.2       1 GTP        -0.8303
      8 O2B        -0.7304   -4.1826   -3.5067 O.3       1 GTP        -0.7951
      9 O3A         0.5552   -2.0432   -3.7774 O.3       1 GTP        -0.7994
     10 PA          2.1468   -2.2811   -3.6362 P.3       1 GTP         1.7871
     11 O1A         2.5767   -3.7041   -3.8445 O.2       1 GTP        -0.8044
     12 O2A         2.7731   -1.2324   -4.6970 O.3       1 GTP        -0.8076
     13 O5'         2.5234   -1.6624   -2.1893 O.3       1 GTP        -0.5620
     14 C5'         2.2816   -0.2918   -1.9206 C.3       1 GTP         0.1570
     15 C4'         2.7248    0.0226   -0.4980 C.3       1 GTP         0.1395
     16 O4'         2.4697    1.4219   -0.2462 O.3       1 GTP        -0.3978
     17 C3'         1.9404   -0.7419    0.5596 C.3       1 GTP         0.0953
     18 O3'         2.7418   -0.8086    1.7389 O.3       1 GTP        -0.5639
     19 C2'         0.7477    0.1630    0.7858 C.3       1 GTP         0.0640
     20 O2'         0.1373   -0.0577    2.0407 O.3       1 GTP        -0.5724
     21 C1'         1.3733    1.5427    0.6747 C.3       1 GTP         0.4182
     22 N9          0.4520    2.5240    0.1767 N.pl3     1 GTP        -0.4563
     23 C8         -0.3350    3.3125    0.8998 C.ar      1 GTP         0.2386
     24 N7         -1.0716    4.1171    0.1405 N.pl3     1 GTP        -0.4432
     25 C5         -0.7219    3.8110   -1.1464 C.ar      1 GTP        -0.2050
     26 C6         -1.2133    4.3827   -2.3917 C.ar      1 GTP         0.7599
     27 O6         -2.0567    5.2674   -2.4335 O.2       1 GTP        -0.5606
     28 N1         -0.5926    3.7846   -3.4870 N.pl3     1 GTP        -0.5020
     29 C2          0.3749    2.7691   -3.3983 C.ar      1 GTP         0.7674
     30 N2          0.8624    2.3146   -4.5959 N.pl3     1 GTP        -0.9014
     31 N3          0.7851    2.2875   -2.2493 N.2       1 GTP        -0.6718
     32 C4          0.2042    2.8436   -1.1486 C.ar      1 GTP         0.3897
     33 HOG2       -4.5535   -0.9875   -4.4457 H         1 GTP         0.5007
     34 HOG3       -1.4764    1.2663   -4.7430 H         1 GTP         0.5007
     35 HOB2        0.0168   -4.7815   -3.2945 H         1 GTP         0.5193
     36 HOA2        3.7478   -1.1363   -4.7496 H         1 GTP         0.4890
     37 H5'         2.8429    0.3147   -2.6388 H         1 GTP         0.0511
     38 H5''        1.2125   -0.0898   -2.0417 H         1 GTP         0.0511
     39 H4'         3.8049   -0.1388   -0.4009 H         1 GTP         0.1554
     40 H3'         1.6783   -1.7629    0.2715 H         1 GTP         0.0796
     41 HO3'        2.2232   -1.2979    2.3953 H         1 GTP         0.4259
     42 H2'        -0.0011    0.0027    0.0003 H         1 GTP         0.0621
     43 HO2'       -0.6141    0.5574    2.1082 H         1 GTP         0.4287
     44 H1'         1.7826    1.9024    1.6451 H         1 GTP         0.1525
     45 H8         -0.3766    3.3075    1.9750 H         1 GTP         0.2675
     46 HN1        -0.8580    4.1049   -4.4138 H         1 GTP         0.3601
     47 HN21        1.5490    1.5963   -4.5827 H         1 GTP         0.4770
     48 HN22        0.5109    2.7205   -5.4321 H         1 GTP         0.4770
     49 H49        -1.7420    4.8034    0.4575 H         1 GTP         0.5213
@<TRIPOS>BOND
     1    1    2 2
     2    1    3 1
     3    1    4 1
     4    1    5 1
     5    3   33 1
     6    4   34 1
     7    5    6 1
     8    6    7 2
     9    6    8 1
    10    6    9 1
    11    8   35 1
    12    9   10 1
    13   10   11 2
    14   10   12 1
    15   10   13 1
    16   12   36 1
    17   13   14 1
    18   14   15 1
    19   14   37 1
    20   14   38 1
    21   15   16 1
    22   15   17 1
    23   15   39 1
    24   16   21 1
    25   17   18 1
    26   17   19 1
    27   17   40 1
    28   18   41 1
    29   19   20 1
    30   19   21 1
    31   19   42 1
    32   20   43 1
    33   21   22 1
    34   21   44 1
    35   22   23 ar
    36   22   32 ar
    37   23   24 ar
    38   23   45 1
    39   24   25 ar
    40   24   49 1
    41   25   26 ar
    42   25   32 ar
    43   26   27 2
    44   26   28 ar
    45   28   29 ar
    46   28   46 1
    47   29   30 1
    48   29   31 ar
    49   30   47 1
    50   30   48 1
    51   31   32 ar
@<TRIPOS>SUBSTRUCTURE
     1 GTP         1 GROUP 0 A     ****
@<TRIPOS>MOLECULE
[[5-(2-amino-6-oxo-7,8-dihydro-1~{H}-purin-8-ylium-9-yl)-3,4-dihydroxy-tetrahydrofuran-2-yl]methoxy-hydroxy-phosphoryl] phosphono hydrogen phosphate
   49    51     1     0     0
SMALL
USER_CHARGES

@<TRIPOS>ATOM
      1 PG         -1.1464   -4.8558   -6.2928 P.3       1 GTP         1.7996
      2 O1G        -2.6195   -4.9328   -6.0183 O.2       1 GTP        -0.8112
      3 O2G        -0.3487   -6.2569   -6.1813 O.3       1 GTP        -0.7934
      4 O3G        -0.7491   -4.3120   -7.7621 O.3       1 GTP        -0.7934
      5 O3B        -0.3275   -3.8731   -5.3052 O.3       1 GTP        -0.8067
      6 PB         -0.4555   -2.2895   -5.0121 P.3       1 GTP         1.9429
      7 O1B        -0.2426   -1.4133   -6.2113 O.2       1 GTP        -0.8303
      8 O2B        -1.8987   -2.1429   -4.2987 O.3       1 GTP        -0.7951
      9 O3A         0.5552   -2.0432   -3.7774 O.3       1 GTP        -0.7994
     10 PA          2.1468   -2.2811   -3.6362 P.3       1 GTP         1.7871
     11 O1A         2.5767   -3.7041   -3.8445 O.2       1 GTP        -0.8044
     12 O2A         2.7731   -1.2324   -4.6970 O.3       1 GTP        -0.8076
     13 O5'         2.5234   -1.6624   -2.1893 O.3       1 GTP        -0.5620
     14 C5'         2.2816   -0.2918   -1.9206 C.3       1 GTP         0.1570
     15 C4'         2.7248    0.0226   -0.4980 C.3       1 GTP         0.1395
     16 O4'         2.4697    1.4219   -0.2462 O.3       1 GTP        -0.3978
     17 C3'         1.9404   -0.7419    0.5596 C.3       1 GTP         0.0953
     18 O3'         2.7418   -0.8086    1.7389 O.3       1 GTP        -0.5639
     19 C2'         0.7477    0.1630    0.7858 C.3       1 GTP         0.0640
     20 O2'         0.1373   -0.0577    2.0407 O.3       1 GTP        -0.5724
     21 C1'         1.3733    1.5427    0.6747 C.3       1 GTP         0.4182
     22 N9          0.4520    2.5240    0.1767 N.pl3     1 GTP        -0.4563
     23 C8          0.2203    2.8205   -1.0970 C.ar      1 GTP         0.2386
     24 N7         -0.6947    3.7752   -1.2304 N.pl3     1 GTP        -0.4432
     25 C5         -1.0607    4.0987    0.0476 C.ar      1 GTP        -0.2050
     26 C6         -2.0310    5.0839    0.5029 C.ar      1 GTP         0.7599
     27 O6         -2.6779    5.7867   -0.2609 O.2       1 GTP        -0.5606
     28 N1         -2.1030    5.0975    1.8948 N.pl3     1 GTP        -0.5020
     29 C2         -1.3422    4.2721    2.7403 C.ar      1 GTP         0.7674
     30 N2         -1.5624    4.4419    4.0823 N.pl3     1 GTP        -0.9014
     31 N3         -0.4796    3.3981    2.2792 N.2       1 GTP        -0.6718
     32 C4         -0.3754    3.3496    0.9208 C.ar      1 GTP         0.3897
     33 HOG2       -0.6074   -6.9989   -6.7682 H         1 GTP         0.5007
     34 HOG3       -1.0361   -3.4129   -8.0293 H         1 GTP         0.5007
     35 HOB2       -2.7072   -2.3393   -4.8183 H         1 GTP         0.5193
     36 HOA2        3.7478   -1.1363   -4.7496 H         1 GTP         0.4890
     37 H5'         2.8429    0.3147   -2.6388 H         1 GTP         0.0511
     38 H5''        1.2125   -0.0898   -2.0417 H         1 GTP         0.0511
     39 H4'         3.8049   -0.1388   -0.4009 H         1 GTP         0.1554
     40 H3'         1.6783   -1.7629    0.2715 H         1 GTP         0.0796
     41 HO3'        2.2232   -1.2979    2.3953 H         1 GTP         0.4259
     42 H2'        -0.0011    0.0027    0.0003 H         1 GTP         0.0621
     43 HO2'       -0.6141    0.5574    2.1082 H         1 GTP         0.4287
     44 H1'         1.7826    1.9024    1.6451 H         1 GTP         0.1525
     45 H8          0.7110    2.3472   -1.9295 H         1 GTP         0.2675
     46 HN1        -2.7504    5.7495    2.3282 H         1 GTP         0.3601
     47 HN21       -1.0467    3.8796    4.7190 H         1 GTP         0.4770
     48 HN22       -2.2294    5.1209    4.3680 H         1 GTP         0.4770
     49 H49        -1.0382    4.1687   -2.0954 H         1 GTP         0.5213
@<TRIPOS>BOND
     1    1    2 2
     2    1    3 1
     3    1    4 1
     4    1    5 1
     5    3   33 1
     6    4   34 1
     7    5    6 1
     8    6    7 2
     9    6    8 1
    10    6    9 1
    11    8   35 1
    12    9   10 1
    13   10   11 2
    14   10   12 1
    15   10   13 1
    16   12   36 1
    17   13   14 1
    18   14   15 1
    19   14   37 1
    20   14   38 1
    21   15   16 1
    22   15   17 1
    23   15   39 1
    24   16   21 1
    25   17   18 1
    26   17   19 1
    27   17   40 1
    28   18   41 1
    29   19   20 1
    30   19   21 1
    31   19   42 1
    32   20   43 1
    33   21   22 1
    34   21   44 1
    35   22   23 ar
    36   22   32 ar
    37   23   24 ar
    38   23   45 1
    39   24   25 ar
    40   24   49 1
    41   25   26 ar
    42   25   32 ar
    43   26   27 2
    44   26   28 ar
    45   28   29 ar
    46   28   46 1
    47   29   30 1
    48   29   31 ar
    49   30   47 1
    50   30   48 1
    51   31   32 ar
@<TRIPOS>SUBSTRUCTURE
     1 GTP         1 GROUP 0 A     ****
@<TRIPOS>MOLECULE
[[5-(2-amino-6-oxo-7,8-dihydro-1~{H}-purin-8-ylium-9-yl)-3,4-dihydroxy-tetrahydrofuran-2-yl]methoxy-hydroxy-phosphoryl] phosphono hydrogen phosphate
   49    51     1     0     0
SMALL
USER_CHARGES

@<TRIPOS>ATOM
      1 PG          1.6881   -4.9190   -6.2506 P.3       1 GTP         1.7996
      2 O1G         2.4175   -5.2184   -7.5271 O.2       1 GTP        -0.8112
      3 O2G         0.0871   -4.7509   -6.3928 O.3       1 GTP        -0.7934
      4 O3G         1.8484   -6.0330   -5.0905 O.3       1 GTP        -0.7934
      5 O3B         2.1490   -3.5559   -5.5150 O.3       1 GTP        -0.8067
      6 PB          2.1380   -2.0142   -5.9982 P.3       1 GTP         1.9429
      7 O1B         2.9570   -1.7384   -7.2246 O.2       1 GTP        -0.8303
      8 O2B         0.5661   -1.6590   -6.1246 O.3       1 GTP        -0.7951
      9 O3A         2.5619   -1.1926   -4.6746 O.3       1 GTP        -0.7994
     10 PA          2.7556    0.3903   -4.4163 P.3       1 GTP         1.7871
     11 O1A         3.8033    1.0305   -5.2800 O.2       1 GTP        -0.8044
     12 O2A         1.2651    0.9841   -4.6238 O.3       1 GTP        -0.8076
     13 O5'         3.0192    0.5132   -2.8246 O.3       1 GTP        -0.5620
     14 C5'         2.2816   -0.2918   -1.9206 C.3       1 GTP         0.1570
     15 C4'         2.7248    0.0226   -0.4980 C.3       1 GTP         0.1395
     16 O4'         2.4697    1.4219   -0.2462 O.3       1 GTP        -0.3978
     17 C3'         1.9404   -0.7419    0.5596 C.3       1 GTP         0.0953
     18 O3'         2.7418   -0.8086    1.7389 O.3       1 GTP        -0.5639
     19 C2'         0.7477    0.1630    0.7858 C.3       1 GTP         0.0640
     20 O2'         0.1373   -0.0577    2.0407 O.3       1 GTP        -0.5724
     21 C1'         1.3733    1.5427    0.6747 C.3       1 GTP         0.4182
     22 N9          0.4520    2.5240    0.1767 N.pl3     1 GTP        -0.4563
     23 C8          0.2203    2.8205   -1.0970 C.ar      1 GTP         0.2386
     24 N7         -0.6947    3.7752   -1.2304 N.pl3     1 GTP        -0.4432
     25 C5         -1.0607    4.0987    0.0476 C.ar      1 GTP        -0.2050
     26 C6         -2.0310    5.0839    0.5029 C.ar      1 GTP         0.7599
     27 O6         -2.6779    5.7867   -0.2609 O.2       1 GTP        -0.5606
     28 N1         -2.1030    5.0975    1.8948 N.pl3     1 GTP        -0.5020
     29 C2         -1.3422    4.2721    2.7403 C.ar      1 GTP         0.7674
     30 N2         -1.5624    4.4419    4.0823 N.pl3     1 GTP        -0.9014
     31 N3         -0.4796    3.3981    2.2792 N.2       1 GTP        -0.6718
     32 C4         -0.3754    3.3496    0.9208 C.ar      1 GTP         0.3897
     33 HOG2       -0.4411   -5.5031   -6.7352 H         1 GTP         0.5007
     34 HOG3        1.5468   -6.9495   -5.2673 H         1 GTP         0.5007
     35 HOB2        0.3026   -0.7346   -6.3199 H         1 GTP         0.5193
     36 HOA2        1.1058    1.9363   -4.4509 H         1 GTP         0.4890
     37 H5'         1.2150   -0.0785   -2.0448 H         1 GTP         0.0511
     38 H5''        2.4641   -1.3458   -2.1540 H         1 GTP         0.0511
     39 H4'         3.8049   -0.1388   -0.4009 H         1 GTP         0.1554
     40 H3'         1.6783   -1.7629    0.2715 H         1 GTP         0.0796
     41 HO3'        2.2232   -1.2979    2.3953 H         1 GTP         0.4259
     42 H2'        -0.0011    0.0027    0.0003 H         1 GTP         0.0621
     43 HO2'       -0.6141    0.5574    2.1082 H         1 GTP         0.4287
     44 H1'         1.7826    1.9024    1.6451 H         1 GTP         0.1525
     45 H8          0.7110    2.3472   -1.9295 H         1 GTP         0.2675
     46 HN1        -2.7504    5.7495    2.3282 H         1 GTP         0.3601
     47 HN21       -1.0467    3.8796    4.7190 H         1 GTP         0.4770
     48 HN22       -2.2294    5.1209    4.3680 H         1 GTP         0.4770
     49 H49        -1.0382    4.1687   -2.0954 H         1 GTP         0.5213
@<TRIPOS>BOND
     1    1    2 2
     2    1    3 1
     3    1    4 1
     4    1    5 1
     5    3   33 1
     6    4   34 1
     7    5    6 1
     8    6    7 2
     9    6    8 1
    10    6    9 1
    11    8   35 1
    12    9   10 1
    13   10   11 2
    14   10   12 1
    15   10   13 1
    16   12   36 1
    17   13   14 1
    18   14   15 1
    19   14   37 1
    20   14   38 1
    21   15   16 1
    22   15   17 1
    23   15   39 1
    24   16   21 1
    25   17   18 1
    26   17   19 1
    27   17   40 1
    28   18   41 1
    29   19   20 1
    30   19   21 1
    31   19   42 1
    32   20   43 1
    33   21   22 1
    34   21   44 1
    35   22   23 ar
    36   22   32 ar
    37   23   24 ar
    38   23   45 1
    39   24   25 ar
    40   24   49 1
    41   25   26 ar
    42   25   32 ar
    43   26   27 2
    44   26   28 ar
    45   28   29 ar
    46   28   46 1
    47   29   30 1
    48   29   31 ar
    49   30   47 1
    50   30   48 1
    51   31   32 ar
@<TRIPOS>SUBSTRUCTURE
     1 GTP         1 GROUP 0 A     ****
@<TRIPOS>MOLECULE
[[5-(2-amino-6-oxo-7,8-dihydro-1~{H}-purin-8-ylium-9-yl)-3,4-dihydroxy-tetrahydrofuran-2-yl]methoxy-hydroxy-phosphoryl] phosphono hydrogen phosphate
   49    51     1     0     0
SMALL
USER_CHARGES

@<TRIPOS>ATOM
      1 PG          4.9490   -4.7676   -5.5466 P.3       1 GTP         1.7996
      2 O1G         5.7897   -5.2703   -4.4101 O.2       1 GTP        -0.8112
      3 O2G         5.7660   -4.3383   -6.8732 O.3       1 GTP        -0.7934
      4 O3G         3.8500   -5.8140   -6.1031 O.3       1 GTP        -0.7934
      5 O3B         4.0665   -3.4579   -5.2039 O.3       1 GTP        -0.8067
      6 PB          4.4843   -1.9721   -4.7262 P.3       1 GTP         1.9429
      7 O1B         5.2327   -1.9213   -3.4269 O.2       1 GTP        -0.8303
      8 O2B         5.2717   -1.3628   -5.9997 O.3       1 GTP        -0.7951
      9 O3A         3.0954   -1.1498   -4.7662 O.3       1 GTP        -0.7994
     10 PA          2.7556    0.3903   -4.4163 P.3       1 GTP         1.7871
     11 O1A         3.4961    1.3896   -5.2568 O.2       1 GTP        -0.8044
     12 O2A         1.1459    0.4566   -4.5634 O.3       1 GTP        -0.8076
     13 O5'         3.0192    0.5132   -2.8246 O.3       1 GTP        -0.5620
     14 C5'         2.2816   -0.2918   -1.9206 C.3       1 GTP         0.1570
     15 C4'         2.7248    0.0226   -0.4980 C.3       1 GTP         0.1395
     16 O4'         2.4697    1.4219   -0.2462 O.3       1 GTP        -0.3978
     17 C3'         1.9404   -0.7419    0.5596 C.3       1 GTP         0.0953
     18 O3'         2.7418   -0.8086    1.7389 O.3       1 GTP        -0.5639
     19 C2'         0.7477    0.1630    0.7858 C.3       1 GTP         0.0640
     20 O2'         0.1373   -0.0577    2.0407 O.3       1 GTP        -0.5724
     21 C1'         1.3733    1.5427    0.6747 C.3       1 GTP         0.4182
     22 N9          0.4520    2.5240    0.1767 N.pl3     1 GTP        -0.4563
     23 C8         -0.2009    2.4849   -0.9792 C.ar      1 GTP         0.2386
     24 N7         -0.9840    3.5454   -1.1481 N.pl3     1 GTP        -0.4432
     25 C5         -0.8090    4.3005   -0.0206 C.ar      1 GTP        -0.2050
     26 C6         -1.4206    5.5724    0.3362 C.ar      1 GTP         0.7599
     27 O6         -2.2199    6.1544   -0.3836 O.2       1 GTP        -0.5606
     28 N1         -0.9680    6.0043    1.5817 N.pl3     1 GTP        -0.5020
     29 C2         -0.0474    5.3055    2.3814 C.ar      1 GTP         0.7674
     30 N2          0.2680    5.9024    3.5740 N.pl3     1 GTP        -0.9014
     31 N3          0.4755    4.1601    2.0138 N.2       1 GTP        -0.6718
     32 C4          0.0611    3.6981    0.8001 C.ar      1 GTP         0.3897
     33 HOG2        6.3140   -5.0101   -7.3319 H         1 GTP         0.5007
     34 HOG3        4.1531   -6.6751   -6.4618 H         1 GTP         0.5007
     35 HOB2        5.5480   -0.4218   -5.9811 H         1 GTP         0.5193
     36 HOA2        0.6824    1.2891   -4.3308 H         1 GTP         0.4890
     37 H5'         1.2150   -0.0785   -2.0448 H         1 GTP         0.0511
     38 H5''        2.4641   -1.3458   -2.1540 H         1 GTP         0.0511
     39 H4'         3.8049   -0.1388   -0.4009 H         1 GTP         0.1554
     40 H3'         1.6783   -1.7629    0.2715 H         1 GTP         0.0796
     41 HO3'        2.2232   -1.2979    2.3953 H         1 GTP         0.4259
     42 H2'        -0.0011    0.0027    0.0003 H         1 GTP         0.0621
     43 HO2'       -0.6141    0.5574    2.1082 H         1 GTP         0.4287
     44 H1'         1.7826    1.9024    1.6451 H         1 GTP         0.1525
     45 H8         -0.1126    1.6906   -1.6997 H         1 GTP         0.2675
     46 HN1        -1.3285    6.8855    1.9361 H         1 GTP         0.3601
     47 HN21        0.9153    5.4446    4.1732 H         1 GTP         0.4770
     48 HN22       -0.1624    6.7706    3.7948 H         1 GTP         0.4770
     49 H49        -1.5768    3.7405   -1.9429 H         1 GTP         0.5213
@<TRIPOS>BOND
     1    1    2 2
     2    1    3 1
     3    1    4 1
     4    1    5 1
     5    3   33 1
     6    4   34 1
     7    5    6 1
     8    6    7 2
     9    6    8 1
    10    6    9 1
    11    8   35 1
    12    9   10 1
    13   10   11 2
    14   10   12 1
    15   10   13 1
    16   12   36 1
    17   13   14 1
    18   14   15 1
    19   14   37 1
    20   14   38 1
    21   15   16 1
    22   15   17 1
    23   15   39 1
    24   16   21 1
    25   17   18 1
    26   17   19 1
    27   17   40 1
    28   18   41 1
    29   19   20 1
    30   19   21 1
    31   19   42 1
    32   20   43 1
    33   21   22 1
    34   21   44 1
    35   22   23 ar
    36   22   32 ar
    37   23   24 ar
    38   23   45 1
    39   24   25 ar
    40   24   49 1
    41   25   26 ar
    42   25   32 ar
    43   26   27 2
    44   26   28 ar
    45   28   29 ar
    46   28   46 1
    47   29   30 1
    48   29   31 ar
    49   30   47 1
    50   30   48 1
    51   31   32 ar
@<TRIPOS>SUBSTRUCTURE
     1 GTP         1 GROUP 0 A     ****
@<TRIPOS>MOLECULE
[[5-(2-amino-6-oxo-7,8-dihydro-1~{H}-purin-8-ylium-9-yl)-3,4-dihydroxy-tetrahydrofuran-2-yl]methoxy-hydroxy-phosphoryl] phosphono hydrogen phosphate
   49    51     1     0     0
SMALL
USER_CHARGES

@<TRIPOS>ATOM
      1 PG         -5.0437   -2.4671    4.6222 P.3       1 GTP         1.7996
      2 O1G        -5.0385   -3.7683    3.8753 O.2       1 GTP        -0.8112
      3 O2G        -4.9199   -1.1429    3.7041 O.3       1 GTP        -0.7934
      4 O3G        -6.3668   -2.1889    5.5080 O.3       1 GTP        -0.7934
      5 O3B        -3.8449   -2.3000    5.6930 O.3       1 GTP        -0.8067
      6 PB         -2.2384   -2.3083    5.5215 P.3       1 GTP         1.9429
      7 O1B        -1.7017   -1.2400    4.6150 O.2       1 GTP        -0.8303
      8 O2B        -1.6863   -2.2653    7.0402 O.3       1 GTP        -0.7951
      9 O3A        -1.9052   -3.8271    5.0867 O.3       1 GTP        -0.7994
     10 PA         -0.5052   -4.5581    4.7468 P.3       1 GTP         1.7871
     11 O1A         0.4825   -4.5510    5.8772 O.2       1 GTP        -0.8044
     12 O2A        -0.9647   -6.0344    4.2709 O.3       1 GTP        -0.8076
     13 O5'         0.0092   -3.8406    3.3907 O.3       1 GTP        -0.5620
     14 C5'        -0.7840   -3.8935    2.2172 C.3       1 GTP         0.1570
     15 C4'        -0.0724   -3.1466    1.1027 C.3       1 GTP         0.1395
     16 O4'        -0.8674   -3.1929   -0.0945 O.3       1 GTP        -0.3978
     17 C3'         0.1338   -1.6715    1.4027 C.3       1 GTP         0.0953
     18 O3'         1.2893   -1.4445    2.1808 O.3       1 GTP        -0.5639
     19 C2'         0.2158   -1.0724    0.0128 C.3       1 GTP         0.0640
     20 O2'         1.5141   -1.2448   -0.5513 O.3       1 GTP        -0.5724
     21 C1'        -0.7897   -1.9176   -0.7583 C.3       1 GTP         0.4182
     22 N9         -2.1040   -1.3333   -0.7704 N.pl3     1 GTP        -0.4563
     23 C8         -3.0597   -1.5109    0.1345 C.ar      1 GTP         0.2386
     24 N7         -4.1618   -0.8291   -0.1607 N.pl3     1 GTP        -0.4432
     25 C5         -3.8764   -0.1805   -1.3310 C.ar      1 GTP        -0.2050
     26 C6         -4.7187    0.7111   -2.1152 C.ar      1 GTP         0.7599
     27 O6         -5.8617    1.0043   -1.7939 O.2       1 GTP        -0.5606
     28 N1         -4.0405    1.1608   -3.2468 N.pl3     1 GTP        -0.5020
     29 C2         -2.7239    0.8013   -3.5822 C.ar      1 GTP         0.7674
     30 N2         -2.2399    1.3534   -4.7394 N.pl3     1 GTP        -0.9014
     31 N3         -2.0053   -0.0071   -2.8402 N.2       1 GTP        -0.6718
     32 C4         -2.6290   -0.4727   -1.7210 C.ar      1 GTP         0.3897
     33 HOG2       -4.1260   -1.0288    3.1396 H         1 GTP         0.5007
     34 HOG3       -7.2387   -2.1506    5.0602 H         1 GTP         0.5007
     35 HOB2       -1.8483   -1.4636    7.5816 H         1 GTP         0.5193
     36 HOA2       -0.2847   -6.6590    3.9401 H         1 GTP         0.4890
     37 H5'        -0.9361   -4.9413    1.9388 H         1 GTP         0.0511
     38 H5''       -1.7561   -3.4349    2.4251 H         1 GTP         0.0511
     39 H4'         0.8886   -3.6448    0.8780 H         1 GTP         0.1554
     40 H3'        -0.7373   -1.2358    1.9870 H         1 GTP         0.0796
     41 HO3'        1.1626   -1.9325    3.0084 H         1 GTP         0.4259
     42 H2'        -0.0384   -0.0310    0.0096 H         1 GTP         0.0621
     43 HO2'        2.1463   -0.7958    0.0370 H         1 GTP         0.4287
     44 H1'        -0.4769   -2.1002   -1.8093 H         1 GTP         0.1525
     45 H8         -2.9610   -2.1316    1.0079 H         1 GTP         0.2675
     46 HN1        -4.5320    1.7923   -3.8726 H         1 GTP         0.3601
     47 HN21       -1.3128    1.1277   -5.0171 H         1 GTP         0.4770
     48 HN22       -2.8342    1.9586   -5.2572 H         1 GTP         0.4770
     49 H49        -5.0195   -0.8034    0.3729 H         1 GTP         0.5213
@<TRIPOS>BOND
     1    1    2 2
     2    1    3 1
     3    1    4 1
     4    1    5 1
     5    3   33 1
     6    4   34 1
     7    5    6 1
     8    6    7 2
     9    6    8 1
    10    6    9 1
    11    8   35 1
    12    9   10 1
    13   10   11 2
    14   10   12 1
    15   10   13 1
    16   12   36 1
    17   13   14 1
    18   14   15 1
    19   14   37 1
    20   14   38 1
    21   15   16 1
    22   15   17 1
    23   15   39 1
    24   16   21 1
    25   17   18 1
    26   17   19 1
    27   17   40 1
    28   18   41 1
    29   19   20 1
    30   19   21 1
    31   19   42 1
    32   20   43 1
    33   21   22 1
    34   21   44 1
    35   22   23 ar
    36   22   32 ar
    37   23   24 ar
    38   23   45 1
    39   24   25 ar
    40   24   49 1
    41   25   26 ar
    42   25   32 ar
    43   26   27 2
    44   26   28 ar
    45   28   29 ar
    46   28   46 1
    47   29   30 1
    48   29   31 ar
    49   30   47 1
    50   30   48 1
    51   31   32 ar
@<TRIPOS>SUBSTRUCTURE
     1 GTP         1 GROUP 0 A     ****
@<TRIPOS>MOLECULE
[[5-(2-amino-6-oxo-7,8-dihydro-1~{H}-purin-8-ylium-9-yl)-3,4-dihydroxy-tetrahydrofuran-2-yl]methoxy-hydroxy-phosphoryl] phosphono hydrogen phosphate
   49    51     1     0     0
SMALL
USER_CHARGES

@<TRIPOS>ATOM
      1 PG         -3.3340   -1.6555   -5.1403 P.3       1 GTP         1.7996
      2 O1G        -3.8822   -2.9076   -5.7591 O.2       1 GTP        -0.8112
      3 O2G        -3.1099   -0.4218   -6.1599 O.3       1 GTP        -0.7934
      4 O3G        -4.2425   -1.0145   -3.9672 O.3       1 GTP        -0.7934
      5 O3B        -1.8917   -1.8296   -4.4323 O.3       1 GTP        -0.8067
      6 PB         -0.4555   -2.2895   -5.0121 P.3       1 GTP         1.9429
      7 O1B        -0.4338   -3.6674   -5.6052 O.2       1 GTP        -0.8303
      8 O2B        -0.0461   -1.0970   -6.0238 O.3       1 GTP        -0.7951
      9 O3A         0.5552   -2.0432   -3.7774 O.3       1 GTP        -0.7994
     10 PA          2.1468   -2.2811   -3.6362 P.3       1 GTP         1.7871
     11 O1A         2.5767   -3.7041   -3.8445 O.2       1 GTP        -0.8044
     12 O2A         2.7731   -1.2324   -4.6970 O.3       1 GTP        -0.8076
     13 O5'         2.5234   -1.6624   -2.1893 O.3       1 GTP        -0.5620
     14 C5'         2.2816   -0.2918   -1.9206 C.3       1 GTP         0.1570
     15 C4'         2.7248    0.0226   -0.4980 C.3       1 GTP         0.1395
     16 O4'         2.4697    1.4219   -0.2462 O.3       1 GTP        -0.3978
     17 C3'         1.9404   -0.7419    0.5596 C.3       1 GTP         0.0953
     18 O3'         2.7418   -0.8086    1.7389 O.3       1 GTP        -0.5639
     19 C2'         0.7477    0.1630    0.7858 C.3       1 GTP         0.0640
     20 O2'         0.1373   -0.0577    2.0407 O.3       1 GTP        -0.5724
     21 C1'         1.3733    1.5427    0.6747 C.3       1 GTP         0.4182
     22 N9          0.4520    2.5240    0.1767 N.pl3     1 GTP        -0.4563
     23 C8          0.2203    2.8205   -1.0970 C.ar      1 GTP         0.2386
     24 N7         -0.6947    3.7752   -1.2304 N.pl3     1 GTP        -0.4432
     25 C5         -1.0607    4.0987    0.0476 C.ar      1 GTP        -0.2050
     26 C6         -2.0310    5.0839    0.5029 C.ar      1 GTP         0.7599
     27 O6         -2.6779    5.7867   -0.2609 O.2       1 GTP        -0.5606
     28 N1         -2.1030    5.0975    1.8948 N.pl3     1 GTP        -0.5020
     29 C2         -1.3422    4.2721    2.7403 C.ar      1 GTP         0.7674
     30 N2         -1.5624    4.4419    4.0823 N.pl3     1 GTP        -0.9014
     31 N3         -0.4796    3.3981    2.2792 N.2       1 GTP        -0.6718
     32 C4         -0.3754    3.3496    0.9208 C.ar      1 GTP         0.3897
     33 HOG2       -2.4978   -0.5368   -6.9176 H         1 GTP         0.5007
     34 HOG3       -5.1588   -0.7338   -4.1759 H         1 GTP         0.5007
     35 HOB2        0.8443   -1.1082   -6.4351 H         1 GTP         0.5193
     36 HOA2        3.7478   -1.1363   -4.7496 H         1 GTP         0.4890
     37 H5'         2.8429    0.3147   -2.6388 H         1 GTP         0.0511
     38 H5''        1.2125   -0.0898   -2.0417 H         1 GTP         0.0511
     39 H4'         3.8049   -0.1388   -0.4009 H         1 GTP         0.1554
     40 H3'         1.6783   -1.7629    0.2715 H         1 GTP         0.0796
     41 HO3'        2.2232   -1.2979    2.3953 H         1 GTP         0.4259
     42 H2'        -0.0011    0.0027    0.0003 H         1 GTP         0.0621
     43 HO2'       -0.6141    0.5574    2.1082 H         1 GTP         0.4287
     44 H1'         1.7826    1.9024    1.6451 H         1 GTP         0.1525
     45 H8          0.7110    2.3472   -1.9295 H         1 GTP         0.2675
     46 HN1        -2.7504    5.7495    2.3282 H         1 GTP         0.3601
     47 HN21       -1.0467    3.8796    4.7190 H         1 GTP         0.4770
     48 HN22       -2.2294    5.1209    4.3680 H         1 GTP         0.4770
     49 H49        -1.0382    4.1687   -2.0954 H         1 GTP         0.5213
@<TRIPOS>BOND
     1    1    2 2
     2    1    3 1
     3    1    4 1
     4    1    5 1
     5    3   33 1
     6    4   34 1
     7    5    6 1
     8    6    7 2
     9    6    8 1
    10    6    9 1
    11    8   35 1
    12    9   10 1
    13   10   11 2
    14   10   12 1
    15   10   13 1
    16   12   36 1
    17   13   14 1
    18   14   15 1
    19   14   37 1
    20   14   38 1
    21   15   16 1
    22   15   17 1
    23   15   39 1
    24   16   21 1
    25   17   18 1
    26   17   19 1
    27   17   40 1
    28   18   41 1
    29   19   20 1
    30   19   21 1
    31   19   42 1
    32   20   43 1
    33   21   22 1
    34   21   44 1
    35   22   23 ar
    36   22   32 ar
    37   23   24 ar
    38   23   45 1
    39   24   25 ar
    40   24   49 1
    41   25   26 ar
    42   25   32 ar
    43   26   27 2
    44   26   28 ar
    45   28   29 ar
    46   28   46 1
    47   29   30 1
    48   29   31 ar
    49   30   47 1
    50   30   48 1
    51   31   32 ar
@<TRIPOS>SUBSTRUCTURE
     1 GTP         1 GROUP 0 A     ****
@<TRIPOS>MOLECULE
[[5-(2-amino-6-oxo-7,8-dihydro-1~{H}-purin-8-ylium-9-yl)-3,4-dihydroxy-tetrahydrofuran-2-yl]methoxy-hydroxy-phosphoryl] phosphono hydrogen phosphate
   49    51     1     0     0
SMALL
USER_CHARGES

@<TRIPOS>ATOM
      1 PG          4.9462   -4.0030   -5.3576 P.3       1 GTP         1.7996
      2 O1G         5.5506   -3.3578   -4.1454 O.2       1 GTP        -0.8112
      3 O2G         5.7836   -3.8202   -6.7277 O.3       1 GTP        -0.7934
      4 O3G         4.7393   -5.6026   -5.2532 O.3       1 GTP        -0.7934
      5 O3B         3.4703   -3.4675   -5.7406 O.3       1 GTP        -0.8067
      6 PB          2.9251   -1.9973   -6.1298 P.3       1 GTP         1.9429
      7 O1B         3.5597   -1.3990   -7.3506 O.2       1 GTP        -0.8303
      8 O2B         1.3217   -2.1869   -6.2090 O.3       1 GTP        -0.7951
      9 O3A         3.0954   -1.1498   -4.7662 O.3       1 GTP        -0.7994
     10 PA          2.7556    0.3903   -4.4163 P.3       1 GTP         1.7871
     11 O1A         3.4961    1.3896   -5.2568 O.2       1 GTP        -0.8044
     12 O2A         1.1459    0.4566   -4.5634 O.3       1 GTP        -0.8076
     13 O5'         3.0192    0.5132   -2.8246 O.3       1 GTP        -0.5620
     14 C5'         2.2816   -0.2918   -1.9206 C.3       1 GTP         0.1570
     15 C4'         2.7248    0.0226   -0.4980 C.3       1 GTP         0.1395
     16 O4'         2.4697    1.4219   -0.2462 O.3       1 GTP        -0.3978
     17 C3'         1.9404   -0.7419    0.5596 C.3       1 GTP         0.0953
     18 O3'         2.7418   -0.8086    1.7389 O.3       1 GTP        -0.5639
     19 C2'         0.7477    0.1630    0.7858 C.3       1 GTP         0.0640
     20 O2'         0.1373   -0.0577    2.0407 O.3       1 GTP        -0.5724
     21 C1'         1.3733    1.5427    0.6747 C.3       1 GTP         0.4182
     22 N9          0.4520    2.5240    0.1767 N.pl3     1 GTP        -0.4563
     23 C8         -0.2009    2.4849   -0.9792 C.ar      1 GTP         0.2386
     24 N7         -0.9840    3.5454   -1.1481 N.pl3     1 GTP        -0.4432
     25 C5         -0.8090    4.3005   -0.0206 C.ar      1 GTP        -0.2050
     26 C6         -1.4206    5.5724    0.3362 C.ar      1 GTP         0.7599
     27 O6         -2.2199    6.1544   -0.3836 O.2       1 GTP        -0.5606
     28 N1         -0.9680    6.0043    1.5817 N.pl3     1 GTP        -0.5020
     29 C2         -0.0474    5.3055    2.3814 C.ar      1 GTP         0.7674
     30 N2          0.2680    5.9024    3.5740 N.pl3     1 GTP        -0.9014
     31 N3          0.4755    4.1601    2.0138 N.2       1 GTP        -0.6718
     32 C4          0.0611    3.6981    0.8001 C.ar      1 GTP         0.3897
     33 HOG2        5.9514   -2.9145   -7.0647 H         1 GTP         0.5007
     34 HOG3        5.5231   -6.1744   -5.1087 H         1 GTP         0.5007
     35 HOB2        0.7564   -1.3968   -6.3439 H         1 GTP         0.5193
     36 HOA2        0.6824    1.2891   -4.3308 H         1 GTP         0.4890
     37 H5'         1.2150   -0.0785   -2.0448 H         1 GTP         0.0511
     38 H5''        2.4641   -1.3458   -2.1540 H         1 GTP         0.0511
     39 H4'         3.8049   -0.1388   -0.4009 H         1 GTP         0.1554
     40 H3'         1.6783   -1.7629    0.2715 H         1 GTP         0.0796
     41 HO3'        2.2232   -1.2979    2.3953 H         1 GTP         0.4259
     42 H2'        -0.0011    0.0027    0.0003 H         1 GTP         0.0621
     43 HO2'       -0.1563   -0.9855    2.0596 H         1 GTP         0.4287
     44 H1'         1.7826    1.9024    1.6451 H         1 GTP         0.1525
     45 H8         -0.1126    1.6906   -1.6997 H         1 GTP         0.2675
     46 HN1        -1.3285    6.8855    1.9361 H         1 GTP         0.3601
     47 HN21        0.9153    5.4446    4.1732 H         1 GTP         0.4770
     48 HN22       -0.1624    6.7706    3.7948 H         1 GTP         0.4770
     49 H49        -1.5768    3.7405   -1.9429 H         1 GTP         0.5213
@<TRIPOS>BOND
     1    1    2 2
     2    1    3 1
     3    1    4 1
     4    1    5 1
     5    3   33 1
     6    4   34 1
     7    5    6 1
     8    6    7 2
     9    6    8 1
    10    6    9 1
    11    8   35 1
    12    9   10 1
    13   10   11 2
    14   10   12 1
    15   10   13 1
    16   12   36 1
    17   13   14 1
    18   14   15 1
    19   14   37 1
    20   14   38 1
    21   15   16 1
    22   15   17 1
    23   15   39 1
    24   16   21 1
    25   17   18 1
    26   17   19 1
    27   17   40 1
    28   18   41 1
    29   19   20 1
    30   19   21 1
    31   19   42 1
    32   20   43 1
    33   21   22 1
    34   21   44 1
    35   22   23 ar
    36   22   32 ar
    37   23   24 ar
    38   23   45 1
    39   24   25 ar
    40   24   49 1
    41   25   26 ar
    42   25   32 ar
    43   26   27 2
    44   26   28 ar
    45   28   29 ar
    46   28   46 1
    47   29   30 1
    48   29   31 ar
    49   30   47 1
    50   30   48 1
    51   31   32 ar
@<TRIPOS>SUBSTRUCTURE
     1 GTP         1 GROUP 0 A     ****
@<TRIPOS>MOLECULE
[[5-(2-amino-6-oxo-7,8-dihydro-1~{H}-purin-8-ylium-9-yl)-3,4-dihydroxy-tetrahydrofuran-2-yl]methoxy-hydroxy-phosphoryl] phosphono hydrogen phosphate
   49    51     1     0     0
SMALL
USER_CHARGES

@<TRIPOS>ATOM
      1 PG          3.6039   -2.2004   -8.5516 P.3       1 GTP         1.7996
      2 O1G         2.4926   -2.0116   -9.5417 O.2       1 GTP        -0.8112
      3 O2G         4.0447   -3.7334   -8.2917 O.3       1 GTP        -0.7934
      4 O3G         4.9939   -1.4680   -8.9314 O.3       1 GTP        -0.7934
      5 O3B         3.2882   -1.6397   -7.0692 O.3       1 GTP        -0.8067
      6 PB          2.1380   -2.0142   -5.9982 P.3       1 GTP         1.9429
      7 O1B         0.7362   -1.7881   -6.4826 O.2       1 GTP        -0.8303
      8 O2B         2.4839   -3.5353   -5.5740 O.3       1 GTP        -0.7951
      9 O3A         2.5619   -1.1926   -4.6746 O.3       1 GTP        -0.7994
     10 PA          2.7556    0.3903   -4.4163 P.3       1 GTP         1.7871
     11 O1A         3.8033    1.0305   -5.2800 O.2       1 GTP        -0.8044
     12 O2A         1.2651    0.9841   -4.6238 O.3       1 GTP        -0.8076
     13 O5'         3.0192    0.5132   -2.8246 O.3       1 GTP        -0.5620
     14 C5'         2.2816   -0.2918   -1.9206 C.3       1 GTP         0.1570
     15 C4'         2.7248    0.0226   -0.4980 C.3       1 GTP         0.1395
     16 O4'         2.4697    1.4219   -0.2462 O.3       1 GTP        -0.3978
     17 C3'         1.9404   -0.7419    0.5596 C.3       1 GTP         0.0953
     18 O3'         2.7418   -0.8086    1.7389 O.3       1 GTP        -0.5639
     19 C2'         0.7477    0.1630    0.7858 C.3       1 GTP         0.0640
     20 O2'         0.1373   -0.0577    2.0407 O.3       1 GTP        -0.5724
     21 C1'         1.3733    1.5427    0.6747 C.3       1 GTP         0.4182
     22 N9          0.4520    2.5240    0.1767 N.pl3     1 GTP        -0.4563
     23 C8          0.2203    2.8205   -1.0970 C.ar      1 GTP         0.2386
     24 N7         -0.6947    3.7752   -1.2304 N.pl3     1 GTP        -0.4432
     25 C5         -1.0607    4.0987    0.0476 C.ar      1 GTP        -0.2050
     26 C6         -2.0310    5.0839    0.5029 C.ar      1 GTP         0.7599
     27 O6         -2.6779    5.7867   -0.2609 O.2       1 GTP        -0.5606
     28 N1         -2.1030    5.0975    1.8948 N.pl3     1 GTP        -0.5020
     29 C2         -1.3422    4.2721    2.7403 C.ar      1 GTP         0.7674
     30 N2         -1.5624    4.4419    4.0823 N.pl3     1 GTP        -0.9014
     31 N3         -0.4796    3.3981    2.2792 N.2       1 GTP        -0.6718
     32 C4         -0.3754    3.3496    0.9208 C.ar      1 GTP         0.3897
     33 HOG2        4.3760   -4.2667   -9.0452 H         1 GTP         0.5007
     34 HOG3        5.4455   -1.7108   -9.7676 H         1 GTP         0.5007
     35 HOB2        1.9683   -3.9561   -4.8535 H         1 GTP         0.5193
     36 HOA2        1.1058    1.9363   -4.4509 H         1 GTP         0.4890
     37 H5'         1.2150   -0.0785   -2.0448 H         1 GTP         0.0511
     38 H5''        2.4641   -1.3458   -2.1540 H         1 GTP         0.0511
     39 H4'         3.8049   -0.1388   -0.4009 H         1 GTP         0.1554
     40 H3'         1.6783   -1.7629    0.2715 H         1 GTP         0.0796
     41 HO3'        3.5554   -1.2733    1.4914 H         1 GTP         0.4259
     42 H2'        -0.0011    0.0027    0.0003 H         1 GTP         0.0621
     43 HO2'       -0.1563   -0.9855    2.0596 H         1 GTP         0.4287
     44 H1'         1.7826    1.9024    1.6451 H         1 GTP         0.1525
     45 H8          0.7110    2.3472   -1.9295 H         1 GTP         0.2675
     46 HN1        -2.7504    5.7495    2.3282 H         1 GTP         0.3601
     47 HN21       -1.0467    3.8796    4.7190 H         1 GTP         0.4770
     48 HN22       -2.2294    5.1209    4.3680 H         1 GTP         0.4770
     49 H49        -1.0382    4.1687   -2.0954 H         1 GTP         0.5213
@<TRIPOS>BOND
     1    1    2 2
     2    1    3 1
     3    1    4 1
     4    1    5 1
     5    3   33 1
     6    4   34 1
     7    5    6 1
     8    6    7 2
     9    6    8 1
    10    6    9 1
    11    8   35 1
    12    9   10 1
    13   10   11 2
    14   10   12 1
    15   10   13 1
    16   12   36 1
    17   13   14 1
    18   14   15 1
    19   14   37 1
    20   14   38 1
    21   15   16 1
    22   15   17 1
    23   15   39 1
    24   16   21 1
    25   17   18 1
    26   17   19 1
    27   17   40 1
    28   18   41 1
    29   19   20 1
    30   19   21 1
    31   19   42 1
    32   20   43 1
    33   21   22 1
    34   21   44 1
    35   22   23 ar
    36   22   32 ar
    37   23   24 ar
    38   23   45 1
    39   24   25 ar
    40   24   49 1
    41   25   26 ar
    42   25   32 ar
    43   26   27 2
    44   26   28 ar
    45   28   29 ar
    46   28   46 1
    47   29   30 1
    48   29   31 ar
    49   30   47 1
    50   30   48 1
    51   31   32 ar
@<TRIPOS>SUBSTRUCTURE
     1 GTP         1 GROUP 0 A     ****
@<TRIPOS>MOLECULE
[[5-(2-amino-6-oxo-7,8-dihydro-1~{H}-purin-8-ylium-9-yl)-3,4-dihydroxy-tetrahydrofuran-2-yl]methoxy-hydroxy-phosphoryl] phosphono hydrogen phosphate
   49    51     1     0     0
SMALL
USER_CHARGES

@<TRIPOS>ATOM
      1 PG          0.2433   -3.3420   -5.8542 P.3       1 GTP         1.7996
      2 O1G         0.8520   -3.8576   -7.1249 O.2       1 GTP        -0.8112
      3 O2G        -1.1413   -4.0498   -5.4143 O.3       1 GTP        -0.7934
      4 O3G         1.1734   -3.4846   -4.5399 O.3       1 GTP        -0.7934
      5 O3B        -0.1242   -1.7683   -5.8732 O.3       1 GTP        -0.8067
      6 PB          0.7876   -0.4517   -6.0867 P.3       1 GTP         1.9429
      7 O1B         1.5037   -0.3950   -7.4038 O.2       1 GTP        -0.8303
      8 O2B        -0.2277    0.7732   -5.8006 O.3       1 GTP        -0.7951
      9 O3A         1.7298   -0.4190   -4.7761 O.3       1 GTP        -0.7994
     10 PA          2.8837    0.6137   -4.3156 P.3       1 GTP         1.7871
     11 O1A         4.0324    0.7203   -5.2762 O.2       1 GTP        -0.8044
     12 O2A         2.0739    1.9954   -4.0872 O.3       1 GTP        -0.8076
     13 O5'         3.2876    0.1332   -2.8242 O.3       1 GTP        -0.5620
     14 C5'         2.2816   -0.2918   -1.9206 C.3       1 GTP         0.1570
     15 C4'         2.7248    0.0226   -0.4980 C.3       1 GTP         0.1395
     16 O4'         2.4697    1.4219   -0.2462 O.3       1 GTP        -0.3978
     17 C3'         1.9404   -0.7419    0.5596 C.3       1 GTP         0.0953
     18 O3'         2.7418   -0.8086    1.7389 O.3       1 GTP        -0.5639
     19 C2'         0.7477    0.1630    0.7858 C.3       1 GTP         0.0640
     20 O2'         0.1373   -0.0577    2.0407 O.3       1 GTP        -0.5724
     21 C1'         1.3733    1.5427    0.6747 C.3       1 GTP         0.4182
     22 N9          0.4520    2.5240    0.1767 N.pl3     1 GTP        -0.4563
     23 C8          0.2203    2.8205   -1.0970 C.ar      1 GTP         0.2386
     24 N7         -0.6947    3.7752   -1.2304 N.pl3     1 GTP        -0.4432
     25 C5         -1.0607    4.0987    0.0476 C.ar      1 GTP        -0.2050
     26 C6         -2.0310    5.0839    0.5029 C.ar      1 GTP         0.7599
     27 O6         -2.6779    5.7867   -0.2609 O.2       1 GTP        -0.5606
     28 N1         -2.1030    5.0975    1.8948 N.pl3     1 GTP        -0.5020
     29 C2         -1.3422    4.2721    2.7403 C.ar      1 GTP         0.7674
     30 N2         -1.5624    4.4419    4.0823 N.pl3     1 GTP        -0.9014
     31 N3         -0.4796    3.3981    2.2792 N.2       1 GTP        -0.6718
     32 C4         -0.3754    3.3496    0.9208 C.ar      1 GTP         0.3897
     33 HOG2       -1.9115   -4.0042   -6.0198 H         1 GTP         0.5007
     34 HOG3        2.0456   -3.0362   -4.5245 H         1 GTP         0.5007
     35 HOB2        0.1258    1.6879   -5.7805 H         1 GTP         0.5193
     36 HOA2        2.5542    2.7733   -3.7319 H         1 GTP         0.4890
     37 H5'         1.3495    0.2323   -2.1554 H         1 GTP         0.0511
     38 H5''        2.1262   -1.3685   -2.0437 H         1 GTP         0.0511
     39 H4'         3.8049   -0.1388   -0.4009 H         1 GTP         0.1554
     40 H3'         1.6783   -1.7629    0.2715 H         1 GTP         0.0796
     41 HO3'        2.2232   -1.2979    2.3953 H         1 GTP         0.4259
     42 H2'        -0.0011    0.0027    0.0003 H         1 GTP         0.0621
     43 HO2'       -0.6141    0.5574    2.1082 H         1 GTP         0.4287
     44 H1'         1.7826    1.9024    1.6451 H         1 GTP         0.1525
     45 H8          0.7110    2.3472   -1.9295 H         1 GTP         0.2675
     46 HN1        -2.7504    5.7495    2.3282 H         1 GTP         0.3601
     47 HN21       -1.0467    3.8796    4.7190 H         1 GTP         0.4770
     48 HN22       -2.2294    5.1209    4.3680 H         1 GTP         0.4770
     49 H49        -1.0382    4.1687   -2.0954 H         1 GTP         0.5213
@<TRIPOS>BOND
     1    1    2 2
     2    1    3 1
     3    1    4 1
     4    1    5 1
     5    3   33 1
     6    4   34 1
     7    5    6 1
     8    6    7 2
     9    6    8 1
    10    6    9 1
    11    8   35 1
    12    9   10 1
    13   10   11 2
    14   10   12 1
    15   10   13 1
    16   12   36 1
    17   13   14 1
    18   14   15 1
    19   14   37 1
    20   14   38 1
    21   15   16 1
    22   15   17 1
    23   15   39 1
    24   16   21 1
    25   17   18 1
    26   17   19 1
    27   17   40 1
    28   18   41 1
    29   19   20 1
    30   19   21 1
    31   19   42 1
    32   20   43 1
    33   21   22 1
    34   21   44 1
    35   22   23 ar
    36   22   32 ar
    37   23   24 ar
    38   23   45 1
    39   24   25 ar
    40   24   49 1
    41   25   26 ar
    42   25   32 ar
    43   26   27 2
    44   26   28 ar
    45   28   29 ar
    46   28   46 1
    47   29   30 1
    48   29   31 ar
    49   30   47 1
    50   30   48 1
    51   31   32 ar
@<TRIPOS>SUBSTRUCTURE
     1 GTP         1 GROUP 0 A     ****
@<TRIPOS>MOLECULE
[[5-(2-amino-6-oxo-7,8-dihydro-1~{H}-purin-8-ylium-9-yl)-3,4-dihydroxy-tetrahydrofuran-2-yl]methoxy-hydroxy-phosphoryl] phosphono hydrogen phosphate
   49    51     1     0     0
SMALL
USER_CHARGES

@<TRIPOS>ATOM
      1 PG          1.8482   -4.9048   -4.0412 P.3       1 GTP         1.7996
      2 O1G         2.0804   -5.3490   -2.6270 O.2       1 GTP        -0.8112
      3 O2G         1.4406   -6.0775   -5.0757 O.3       1 GTP        -0.7934
      4 O3G         0.6758   -3.8088   -4.2331 O.3       1 GTP        -0.7934
      5 O3B         3.1229   -4.2039   -4.7451 O.3       1 GTP        -0.8067
      6 PB          3.9719   -2.8827   -4.3653 P.3       1 GTP         1.9429
      7 O1B         4.6249   -2.9268   -3.0153 O.2       1 GTP        -0.8303
      8 O2B         4.9818   -2.6989   -5.6141 O.3       1 GTP        -0.7951
      9 O3A         2.9276   -1.6737   -4.5982 O.3       1 GTP        -0.7994
     10 PA          3.0852   -0.0762   -4.4159 P.3       1 GTP         1.7871
     11 O1A         4.1533    0.5381   -5.2733 O.2       1 GTP        -0.8044
     12 O2A         1.5937    0.4784   -4.7077 O.3       1 GTP        -0.8076
     13 O5'         3.2876    0.1332   -2.8242 O.3       1 GTP        -0.5620
     14 C5'         2.2816   -0.2918   -1.9206 C.3       1 GTP         0.1570
     15 C4'         2.7248    0.0226   -0.4980 C.3       1 GTP         0.1395
     16 O4'         2.4697    1.4219   -0.2462 O.3       1 GTP        -0.3978
     17 C3'         1.9404   -0.7419    0.5596 C.3       1 GTP         0.0953
     18 O3'         2.7418   -0.8086    1.7389 O.3       1 GTP        -0.5639
     19 C2'         0.7477    0.1630    0.7858 C.3       1 GTP         0.0640
     20 O2'         0.1373   -0.0577    2.0407 O.3       1 GTP        -0.5724
     21 C1'         1.3733    1.5427    0.6747 C.3       1 GTP         0.4182
     22 N9          0.4520    2.5240    0.1767 N.pl3     1 GTP        -0.4563
     23 C8          0.5671    3.2221   -0.9473 C.ar      1 GTP         0.2386
     24 N7         -0.4560    4.0508   -1.1290 N.pl3     1 GTP        -0.4432
     25 C5         -1.2671    3.8585   -0.0441 C.ar      1 GTP        -0.2050
     26 C6         -2.5318    4.5014    0.2817 C.ar      1 GTP         0.7599
     27 O6         -3.0527    5.3493   -0.4293 O.2       1 GTP        -0.5606
     28 N1         -3.0357    4.0149    1.4868 N.pl3     1 GTP        -0.5020
     29 C2         -2.4069    3.0373    2.2768 C.ar      1 GTP         0.7674
     30 N2         -3.0679    2.6964    3.4278 N.pl3     1 GTP        -0.9014
     31 N3         -1.2653    2.4872    1.9379 N.2       1 GTP        -0.6718
     32 C4         -0.7342    2.9334    0.7643 C.ar      1 GTP         0.3897
     33 HOG2        0.6249   -6.5960   -4.9087 H         1 GTP         0.5007
     34 HOG3        0.7545   -2.9444   -3.7764 H         1 GTP         0.5007
     35 HOB2        5.6768   -3.3742   -5.7659 H         1 GTP         0.5193
     36 HOA2        1.4122    1.4351   -4.5904 H         1 GTP         0.4890
     37 H5'         1.3495    0.2323   -2.1554 H         1 GTP         0.0511
     38 H5''        2.1262   -1.3685   -2.0437 H         1 GTP         0.0511
     39 H4'         3.8049   -0.1388   -0.4009 H         1 GTP         0.1554
     40 H3'         1.6783   -1.7629    0.2715 H         1 GTP         0.0796
     41 HO3'        2.2232   -1.2979    2.3953 H         1 GTP         0.4259
     42 H2'        -0.0011    0.0027    0.0003 H         1 GTP         0.0621
     43 HO2'       -0.1563   -0.9855    2.0596 H         1 GTP         0.4287
     44 H1'         1.7826    1.9024    1.6451 H         1 GTP         0.1525
     45 H8          1.3888    3.1325   -1.6361 H         1 GTP         0.2675
     46 HN1        -3.9188    4.3932    1.8170 H         1 GTP         0.3601
     47 HN21       -2.6609    2.0087    4.0186 H         1 GTP         0.4770
     48 HN22       -3.9293    3.1496    3.6283 H         1 GTP         0.4770
     49 H49        -0.5938    4.6820   -1.9060 H         1 GTP         0.5213
@<TRIPOS>BOND
     1    1    2 2
     2    1    3 1
     3    1    4 1
     4    1    5 1
     5    3   33 1
     6    4   34 1
     7    5    6 1
     8    6    7 2
     9    6    8 1
    10    6    9 1
    11    8   35 1
    12    9   10 1
    13   10   11 2
    14   10   12 1
    15   10   13 1
    16   12   36 1
    17   13   14 1
    18   14   15 1
    19   14   37 1
    20   14   38 1
    21   15   16 1
    22   15   17 1
    23   15   39 1
    24   16   21 1
    25   17   18 1
    26   17   19 1
    27   17   40 1
    28   18   41 1
    29   19   20 1
    30   19   21 1
    31   19   42 1
    32   20   43 1
    33   21   22 1
    34   21   44 1
    35   22   23 ar
    36   22   32 ar
    37   23   24 ar
    38   23   45 1
    39   24   25 ar
    40   24   49 1
    41   25   26 ar
    42   25   32 ar
    43   26   27 2
    44   26   28 ar
    45   28   29 ar
    46   28   46 1
    47   29   30 1
    48   29   31 ar
    49   30   47 1
    50   30   48 1
    51   31   32 ar
@<TRIPOS>SUBSTRUCTURE
     1 GTP         1 GROUP 0 A     ****
@<TRIPOS>MOLECULE
[[5-(2-amino-6-oxo-7,8-dihydro-1~{H}-purin-8-ylium-9-yl)-3,4-dihydroxy-tetrahydrofuran-2-yl]methoxy-hydroxy-phosphoryl] phosphono hydrogen phosphate
   49    51     1     0     0
SMALL
USER_CHARGES

@<TRIPOS>ATOM
      1 PG          4.2765   -1.5472   -8.7134 P.3       1 GTP         1.7996
      2 O1G         3.1317   -1.6938   -9.6721 O.2       1 GTP        -0.8112
      3 O2G         5.2153   -2.8529   -8.5535 O.3       1 GTP        -0.7934
      4 O3G         5.3255   -0.3706   -9.0710 O.3       1 GTP        -0.7934
      5 O3B         3.8439   -1.2025   -7.1950 O.3       1 GTP        -0.8067
      6 PB          2.9251   -1.9973   -6.1298 P.3       1 GTP         1.9429
      7 O1B         1.5124   -2.2326   -6.5769 O.2       1 GTP        -0.8303
      8 O2B         3.7765   -3.3322   -5.8037 O.3       1 GTP        -0.7951
      9 O3A         3.0954   -1.1498   -4.7662 O.3       1 GTP        -0.7994
     10 PA          2.7556    0.3903   -4.4163 P.3       1 GTP         1.7871
     11 O1A         3.4961    1.3896   -5.2568 O.2       1 GTP        -0.8044
     12 O2A         1.1459    0.4566   -4.5634 O.3       1 GTP        -0.8076
     13 O5'         3.0192    0.5132   -2.8246 O.3       1 GTP        -0.5620
     14 C5'         2.2816   -0.2918   -1.9206 C.3       1 GTP         0.1570
     15 C4'         2.7248    0.0226   -0.4980 C.3       1 GTP         0.1395
     16 O4'         2.4697    1.4219   -0.2462 O.3       1 GTP        -0.3978
     17 C3'         1.9404   -0.7419    0.5596 C.3       1 GTP         0.0953
     18 O3'         2.7418   -0.8086    1.7389 O.3       1 GTP        -0.5639
     19 C2'         0.7477    0.1630    0.7858 C.3       1 GTP         0.0640
     20 O2'         0.1373   -0.0577    2.0407 O.3       1 GTP        -0.5724
     21 C1'         1.3733    1.5427    0.6747 C.3       1 GTP         0.4182
     22 N9          0.4520    2.5240    0.1767 N.pl3     1 GTP        -0.4563
     23 C8         -0.2009    2.4849   -0.9792 C.ar      1 GTP         0.2386
     24 N7         -0.9840    3.5454   -1.1481 N.pl3     1 GTP        -0.4432
     25 C5         -0.8090    4.3005   -0.0206 C.ar      1 GTP        -0.2050
     26 C6         -1.4206    5.5724    0.3362 C.ar      1 GTP         0.7599
     27 O6         -2.2199    6.1544   -0.3836 O.2       1 GTP        -0.5606
     28 N1         -0.9680    6.0043    1.5817 N.pl3     1 GTP        -0.5020
     29 C2         -0.0474    5.3055    2.3814 C.ar      1 GTP         0.7674
     30 N2          0.2680    5.9024    3.5740 N.pl3     1 GTP        -0.9014
     31 N3          0.4755    4.1601    2.0138 N.2       1 GTP        -0.6718
     32 C4          0.0611    3.6981    0.8001 C.ar      1 GTP         0.3897
     33 HOG2        5.6793   -3.2040   -9.3431 H         1 GTP         0.5007
     34 HOG3        5.8023   -0.4037   -9.9276 H         1 GTP         0.5007
     35 HOB2        3.9144   -3.9929   -6.5155 H         1 GTP         0.5193
     36 HOA2        0.6824    1.2891   -4.3308 H         1 GTP         0.4890
     37 H5'         1.2150   -0.0785   -2.0448 H         1 GTP         0.0511
     38 H5''        2.4641   -1.3458   -2.1540 H         1 GTP         0.0511
     39 H4'         3.8049   -0.1388   -0.4009 H         1 GTP         0.1554
     40 H3'         1.6783   -1.7629    0.2715 H         1 GTP         0.0796
     41 HO3'        2.2232   -1.2979    2.3953 H         1 GTP         0.4259
     42 H2'        -0.0011    0.0027    0.0003 H         1 GTP         0.0621
     43 HO2'       -0.6141    0.5574    2.1082 H         1 GTP         0.4287
     44 H1'         1.7826    1.9024    1.6451 H         1 GTP         0.1525
     45 H8         -0.1126    1.6906   -1.6997 H         1 GTP         0.2675
     46 HN1        -1.3285    6.8855    1.9361 H         1 GTP         0.3601
     47 HN21       -0.1625    6.7706    3.7945 H         1 GTP         0.4770
     48 HN22        0.9153    5.4448    4.1733 H         1 GTP         0.4770
     49 H49        -1.5768    3.7405   -1.9429 H         1 GTP         0.5213
@<TRIPOS>BOND
     1    1    2 2
     2    1    3 1
     3    1    4 1
     4    1    5 1
     5    3   33 1
     6    4   34 1
     7    5    6 1
     8    6    7 2
     9    6    8 1
    10    6    9 1
    11    8   35 1
    12    9   10 1
    13   10   11 2
    14   10   12 1
    15   10   13 1
    16   12   36 1
    17   13   14 1
    18   14   15 1
    19   14   37 1
    20   14   38 1
    21   15   16 1
    22   15   17 1
    23   15   39 1
    24   16   21 1
    25   17   18 1
    26   17   19 1
    27   17   40 1
    28   18   41 1
    29   19   20 1
    30   19   21 1
    31   19   42 1
    32   20   43 1
    33   21   22 1
    34   21   44 1
    35   22   23 ar
    36   22   32 ar
    37   23   24 ar
    38   23   45 1
    39   24   25 ar
    40   24   49 1
    41   25   26 ar
    42   25   32 ar
    43   26   27 2
    44   26   28 ar
    45   28   29 ar
    46   28   46 1
    47   29   30 1
    48   29   31 ar
    49   30   47 1
    50   30   48 1
    51   31   32 ar
@<TRIPOS>SUBSTRUCTURE
     1 GTP         1 GROUP 0 A     ****
@<TRIPOS>MOLECULE
[[5-(2-amino-6-oxo-7,8-dihydro-1~{H}-purin-8-ylium-9-yl)-3,4-dihydroxy-tetrahydrofuran-2-yl]methoxy-hydroxy-phosphoryl] phosphono hydrogen phosphate
   49    51     1     0     0
SMALL
USER_CHARGES

@<TRIPOS>ATOM
      1 PG         -2.8360   -2.4498   -3.2767 P.3       1 GTP         1.7996
      2 O1G        -2.2038   -2.5094   -1.9174 O.2       1 GTP        -0.8112
      3 O2G        -3.2976   -3.8732   -3.8870 O.3       1 GTP        -0.7934
      4 O3G        -4.1732   -1.5470   -3.3733 O.3       1 GTP        -0.7934
      5 O3B        -1.8917   -1.8296   -4.4323 O.3       1 GTP        -0.8067
      6 PB         -0.4555   -2.2895   -5.0121 P.3       1 GTP         1.9429
      7 O1B        -0.4338   -3.6674   -5.6052 O.2       1 GTP        -0.8303
      8 O2B        -0.0461   -1.0970   -6.0238 O.3       1 GTP        -0.7951
      9 O3A         0.5552   -2.0432   -3.7774 O.3       1 GTP        -0.7994
     10 PA          2.1468   -2.2811   -3.6362 P.3       1 GTP         1.7871
     11 O1A         2.5767   -3.7041   -3.8445 O.2       1 GTP        -0.8044
     12 O2A         2.7731   -1.2324   -4.6970 O.3       1 GTP        -0.8076
     13 O5'         2.5234   -1.6624   -2.1893 O.3       1 GTP        -0.5620
     14 C5'         2.2816   -0.2918   -1.9206 C.3       1 GTP         0.1570
     15 C4'         2.7248    0.0226   -0.4980 C.3       1 GTP         0.1395
     16 O4'         2.4697    1.4219   -0.2462 O.3       1 GTP        -0.3978
     17 C3'         1.9404   -0.7419    0.5596 C.3       1 GTP         0.0953
     18 O3'         2.7418   -0.8086    1.7389 O.3       1 GTP        -0.5639
     19 C2'         0.7477    0.1630    0.7858 C.3       1 GTP         0.0640
     20 O2'         0.1373   -0.0577    2.0407 O.3       1 GTP        -0.5724
     21 C1'         1.3733    1.5427    0.6747 C.3       1 GTP         0.4182
     22 N9          0.4520    2.5240    0.1767 N.pl3     1 GTP        -0.4563
     23 C8         -0.2009    2.4849   -0.9792 C.ar      1 GTP         0.2386
     24 N7         -0.9840    3.5454   -1.1481 N.pl3     1 GTP        -0.4432
     25 C5         -0.8090    4.3005   -0.0206 C.ar      1 GTP        -0.2050
     26 C6         -1.4206    5.5724    0.3362 C.ar      1 GTP         0.7599
     27 O6         -2.2199    6.1544   -0.3836 O.2       1 GTP        -0.5606
     28 N1         -0.9680    6.0043    1.5817 N.pl3     1 GTP        -0.5020
     29 C2         -0.0474    5.3055    2.3814 C.ar      1 GTP         0.7674
     30 N2          0.2680    5.9024    3.5740 N.pl3     1 GTP        -0.9014
     31 N3          0.4755    4.1601    2.0138 N.2       1 GTP        -0.6718
     32 C4          0.0611    3.6981    0.8001 C.ar      1 GTP         0.3897
     33 HOG2       -2.6230   -4.5712   -4.0275 H         1 GTP         0.5007
     34 HOG3       -4.9465   -1.7829   -2.8179 H         1 GTP         0.5007
     35 HOB2        0.8443   -1.1082   -6.4351 H         1 GTP         0.5193
     36 HOA2        3.7478   -1.1363   -4.7496 H         1 GTP         0.4890
     37 H5'         2.8429    0.3147   -2.6388 H         1 GTP         0.0511
     38 H5''        1.2125   -0.0898   -2.0417 H         1 GTP         0.0511
     39 H4'         3.8049   -0.1388   -0.4009 H         1 GTP         0.1554
     40 H3'         1.6783   -1.7629    0.2715 H         1 GTP         0.0796
     41 HO3'        2.2232   -1.2979    2.3953 H         1 GTP         0.4259
     42 H2'        -0.0011    0.0027    0.0003 H         1 GTP         0.0621
     43 HO2'       -0.6141    0.5574    2.1082 H         1 GTP         0.4287
     44 H1'         1.7826    1.9024    1.6451 H         1 GTP         0.1525
     45 H8         -0.1126    1.6906   -1.6997 H         1 GTP         0.2675
     46 HN1        -1.3285    6.8855    1.9361 H         1 GTP         0.3601
     47 HN21        0.9153    5.4446    4.1732 H         1 GTP         0.4770
     48 HN22       -0.1624    6.7706    3.7948 H         1 GTP         0.4770
     49 H49        -1.5768    3.7405   -1.9429 H         1 GTP         0.5213
@<TRIPOS>BOND
     1    1    2 2
     2    1    3 1
     3    1    4 1
     4    1    5 1
     5    3   33 1
     6    4   34 1
     7    5    6 1
     8    6    7 2
     9    6    8 1
    10    6    9 1
    11    8   35 1
    12    9   10 1
    13   10   11 2
    14   10   12 1
    15   10   13 1
    16   12   36 1
    17   13   14 1
    18   14   15 1
    19   14   37 1
    20   14   38 1
    21   15   16 1
    22   15   17 1
    23   15   39 1
    24   16   21 1
    25   17   18 1
    26   17   19 1
    27   17   40 1
    28   18   41 1
    29   19   20 1
    30   19   21 1
    31   19   42 1
    32   20   43 1
    33   21   22 1
    34   21   44 1
    35   22   23 ar
    36   22   32 ar
    37   23   24 ar
    38   23   45 1
    39   24   25 ar
    40   24   49 1
    41   25   26 ar
    42   25   32 ar
    43   26   27 2
    44   26   28 ar
    45   28   29 ar
    46   28   46 1
    47   29   30 1
    48   29   31 ar
    49   30   47 1
    50   30   48 1
    51   31   32 ar
@<TRIPOS>SUBSTRUCTURE
     1 GTP         1 GROUP 0 A     ****
@<TRIPOS>MOLECULE
[[5-(2-amino-6-oxo-7,8-dihydro-1~{H}-purin-8-ylium-9-yl)-3,4-dihydroxy-tetrahydrofuran-2-yl]methoxy-hydroxy-phosphoryl] phosphono hydrogen phosphate
   49    51     1     0     0
SMALL
USER_CHARGES

@<TRIPOS>ATOM
      1 PG          5.2303   -3.7157   -1.8303 P.3       1 GTP         1.7996
      2 O1G         4.7006   -5.1119   -1.6854 O.2       1 GTP        -0.8112
      3 O2G         5.3310   -2.8690   -0.4575 O.3       1 GTP        -0.7934
      4 O3G         6.7191   -3.6068   -2.4502 O.3       1 GTP        -0.7934
      5 O3B         4.3591   -2.7619   -2.8015 O.3       1 GTP        -0.8067
      6 PB          3.9719   -2.8827   -4.3653 P.3       1 GTP         1.9429
      7 O1B         5.1461   -2.9163   -5.2986 O.2       1 GTP        -0.8303
      8 O2B         3.0055   -4.1772   -4.4264 O.3       1 GTP        -0.7951
      9 O3A         2.9276   -1.6737   -4.5982 O.3       1 GTP        -0.7994
     10 PA          3.0852   -0.0762   -4.4159 P.3       1 GTP         1.7871
     11 O1A         4.1533    0.5381   -5.2733 O.2       1 GTP        -0.8044
     12 O2A         1.5937    0.4784   -4.7077 O.3       1 GTP        -0.8076
     13 O5'         3.2876    0.1332   -2.8242 O.3       1 GTP        -0.5620
     14 C5'         2.2816   -0.2918   -1.9206 C.3       1 GTP         0.1570
     15 C4'         2.7248    0.0226   -0.4980 C.3       1 GTP         0.1395
     16 O4'         2.4697    1.4219   -0.2462 O.3       1 GTP        -0.3978
     17 C3'         1.9404   -0.7419    0.5596 C.3       1 GTP         0.0953
     18 O3'         2.7418   -0.8086    1.7389 O.3       1 GTP        -0.5639
     19 C2'         0.7477    0.1630    0.7858 C.3       1 GTP         0.0640
     20 O2'         0.1373   -0.0577    2.0407 O.3       1 GTP        -0.5724
     21 C1'         1.3733    1.5427    0.6747 C.3       1 GTP         0.4182
     22 N9          0.4520    2.5240    0.1767 N.pl3     1 GTP        -0.4563
     23 C8          0.5671    3.2221   -0.9473 C.ar      1 GTP         0.2386
     24 N7         -0.4560    4.0508   -1.1290 N.pl3     1 GTP        -0.4432
     25 C5         -1.2671    3.8585   -0.0441 C.ar      1 GTP        -0.2050
     26 C6         -2.5318    4.5014    0.2817 C.ar      1 GTP         0.7599
     27 O6         -3.0527    5.3493   -0.4293 O.2       1 GTP        -0.5606
     28 N1         -3.0357    4.0149    1.4868 N.pl3     1 GTP        -0.5020
     29 C2         -2.4069    3.0373    2.2768 C.ar      1 GTP         0.7674
     30 N2         -3.0679    2.6964    3.4278 N.pl3     1 GTP        -0.9014
     31 N3         -1.2653    2.4872    1.9379 N.2       1 GTP        -0.6718
     32 C4         -0.7342    2.9334    0.7643 C.ar      1 GTP         0.3897
     33 HOG2        4.5143   -2.7039    0.0599 H         1 GTP         0.5007
     34 HOG3        7.4623   -4.0405   -1.9794 H         1 GTP         0.5007
     35 HOB2        2.5635   -4.4000   -5.2732 H         1 GTP         0.5193
     36 HOA2        1.2130    0.3658   -5.6046 H         1 GTP         0.4890
     37 H5'         1.3495    0.2323   -2.1554 H         1 GTP         0.0511
     38 H5''        2.1262   -1.3685   -2.0437 H         1 GTP         0.0511
     39 H4'         3.8049   -0.1388   -0.4009 H         1 GTP         0.1554
     40 H3'         1.6783   -1.7629    0.2715 H         1 GTP         0.0796
     41 HO3'        3.5554   -1.2733    1.4914 H         1 GTP         0.4259
     42 H2'        -0.0011    0.0027    0.0003 H         1 GTP         0.0621
     43 HO2'       -0.1563   -0.9855    2.0596 H         1 GTP         0.4287
     44 H1'         1.7826    1.9024    1.6451 H         1 GTP         0.1525
     45 H8          1.3888    3.1325   -1.6361 H         1 GTP         0.2675
     46 HN1        -3.9188    4.3932    1.8170 H         1 GTP         0.3601
     47 HN21       -2.6609    2.0087    4.0186 H         1 GTP         0.4770
     48 HN22       -3.9293    3.1496    3.6283 H         1 GTP         0.4770
     49 H49        -0.5938    4.6820   -1.9060 H         1 GTP         0.5213
@<TRIPOS>BOND
     1    1    2 2
     2    1    3 1
     3    1    4 1
     4    1    5 1
     5    3   33 1
     6    4   34 1
     7    5    6 1
     8    6    7 2
     9    6    8 1
    10    6    9 1
    11    8   35 1
    12    9   10 1
    13   10   11 2
    14   10   12 1
    15   10   13 1
    16   12   36 1
    17   13   14 1
    18   14   15 1
    19   14   37 1
    20   14   38 1
    21   15   16 1
    22   15   17 1
    23   15   39 1
    24   16   21 1
    25   17   18 1
    26   17   19 1
    27   17   40 1
    28   18   41 1
    29   19   20 1
    30   19   21 1
    31   19   42 1
    32   20   43 1
    33   21   22 1
    34   21   44 1
    35   22   23 ar
    36   22   32 ar
    37   23   24 ar
    38   23   45 1
    39   24   25 ar
    40   24   49 1
    41   25   26 ar
    42   25   32 ar
    43   26   27 2
    44   26   28 ar
    45   28   29 ar
    46   28   46 1
    47   29   30 1
    48   29   31 ar
    49   30   47 1
    50   30   48 1
    51   31   32 ar
@<TRIPOS>SUBSTRUCTURE
     1 GTP         1 GROUP 0 A     ****
@<TRIPOS>MOLECULE
[[5-(2-amino-6-oxo-7,8-dihydro-1~{H}-purin-8-ylium-9-yl)-3,4-dihydroxy-tetrahydrofuran-2-yl]methoxy-hydroxy-phosphoryl] phosphono hydrogen phosphate
   49    51     1     0     0
SMALL
USER_CHARGES

@<TRIPOS>ATOM
      1 PG         -3.5678   -2.2207   -3.4564 P.3       1 GTP         1.7996
      2 O1G        -4.0260   -3.6124   -3.7792 O.2       1 GTP        -0.8112
      3 O2G        -4.2454   -1.0482   -4.3383 O.3       1 GTP        -0.7934
      4 O3G        -3.8311   -1.7468   -1.9337 O.3       1 GTP        -0.7934
      5 O3B        -1.9825   -1.9718   -3.6480 O.3       1 GTP        -0.8067
      6 PB         -0.6931   -2.6614   -2.9611 P.3       1 GTP         1.9429
      7 O1B        -0.6290   -2.5182   -1.4690 O.2       1 GTP        -0.8303
      8 O2B        -0.7304   -4.1826   -3.5067 O.3       1 GTP        -0.7951
      9 O3A         0.5552   -2.0432   -3.7774 O.3       1 GTP        -0.7994
     10 PA          2.1468   -2.2811   -3.6362 P.3       1 GTP         1.7871
     11 O1A         2.5767   -3.7041   -3.8445 O.2       1 GTP        -0.8044
     12 O2A         2.7731   -1.2324   -4.6970 O.3       1 GTP        -0.8076
     13 O5'         2.5234   -1.6624   -2.1893 O.3       1 GTP        -0.5620
     14 C5'         2.2816   -0.2918   -1.9206 C.3       1 GTP         0.1570
     15 C4'         2.7248    0.0226   -0.4980 C.3       1 GTP         0.1395
     16 O4'         2.4697    1.4219   -0.2462 O.3       1 GTP        -0.3978
     17 C3'         1.9404   -0.7419    0.5596 C.3       1 GTP         0.0953
     18 O3'         2.7418   -0.8086    1.7389 O.3       1 GTP        -0.5639
     19 C2'         0.7477    0.1630    0.7858 C.3       1 GTP         0.0640
     20 O2'         0.1373   -0.0577    2.0407 O.3       1 GTP        -0.5724
     21 C1'         1.3733    1.5427    0.6747 C.3       1 GTP         0.4182
     22 N9          0.4520    2.5240    0.1767 N.pl3     1 GTP        -0.4563
     23 C8         -0.2009    2.4849   -0.9792 C.ar      1 GTP         0.2386
     24 N7         -0.9840    3.5454   -1.1481 N.pl3     1 GTP        -0.4432
     25 C5         -0.8090    4.3005   -0.0206 C.ar      1 GTP        -0.2050
     26 C6         -1.4206    5.5724    0.3362 C.ar      1 GTP         0.7599
     27 O6         -2.2199    6.1544   -0.3836 O.2       1 GTP        -0.5606
     28 N1         -0.9680    6.0043    1.5817 N.pl3     1 GTP        -0.5020
     29 C2         -0.0474    5.3055    2.3814 C.ar      1 GTP         0.7674
     30 N2          0.2680    5.9024    3.5740 N.pl3     1 GTP        -0.9014
     31 N3          0.4755    4.1601    2.0138 N.2       1 GTP        -0.6718
     32 C4          0.0611    3.6981    0.8001 C.ar      1 GTP         0.3897
     33 HOG2       -4.1303   -1.0593   -5.3123 H         1 GTP         0.5007
     34 HOG3       -4.7518   -1.7232   -1.5962 H         1 GTP         0.5007
     35 HOB2       -1.4685   -4.7674   -3.2321 H         1 GTP         0.5193
     36 HOA2        3.7478   -1.1363   -4.7496 H         1 GTP         0.4890
     37 H5'         2.8429    0.3147   -2.6388 H         1 GTP         0.0511
     38 H5''        1.2125   -0.0898   -2.0417 H         1 GTP         0.0511
     39 H4'         3.8049   -0.1388   -0.4009 H         1 GTP         0.1554
     40 H3'         1.6783   -1.7629    0.2715 H         1 GTP         0.0796
     41 HO3'        3.5554   -1.2733    1.4914 H         1 GTP         0.4259
     42 H2'        -0.0011    0.0027    0.0003 H         1 GTP         0.0621
     43 HO2'        0.8082    0.1199    2.7232 H         1 GTP         0.4287
     44 H1'         1.7826    1.9024    1.6451 H         1 GTP         0.1525
     45 H8         -0.1126    1.6906   -1.6997 H         1 GTP         0.2675
     46 HN1        -1.3285    6.8855    1.9361 H         1 GTP         0.3601
     47 HN21        0.9153    5.4446    4.1732 H         1 GTP         0.4770
     48 HN22       -0.1624    6.7706    3.7948 H         1 GTP         0.4770
     49 H49        -1.5768    3.7405   -1.9429 H         1 GTP         0.5213
@<TRIPOS>BOND
     1    1    2 2
     2    1    3 1
     3    1    4 1
     4    1    5 1
     5    3   33 1
     6    4   34 1
     7    5    6 1
     8    6    7 2
     9    6    8 1
    10    6    9 1
    11    8   35 1
    12    9   10 1
    13   10   11 2
    14   10   12 1
    15   10   13 1
    16   12   36 1
    17   13   14 1
    18   14   15 1
    19   14   37 1
    20   14   38 1
    21   15   16 1
    22   15   17 1
    23   15   39 1
    24   16   21 1
    25   17   18 1
    26   17   19 1
    27   17   40 1
    28   18   41 1
    29   19   20 1
    30   19   21 1
    31   19   42 1
    32   20   43 1
    33   21   22 1
    34   21   44 1
    35   22   23 ar
    36   22   32 ar
    37   23   24 ar
    38   23   45 1
    39   24   25 ar
    40   24   49 1
    41   25   26 ar
    42   25   32 ar
    43   26   27 2
    44   26   28 ar
    45   28   29 ar
    46   28   46 1
    47   29   30 1
    48   29   31 ar
    49   30   47 1
    50   30   48 1
    51   31   32 ar
@<TRIPOS>SUBSTRUCTURE
     1 GTP         1 GROUP 0 A     ****
@<TRIPOS>MOLECULE
[[5-(2-amino-6-oxo-7,8-dihydro-1~{H}-purin-8-ylium-9-yl)-3,4-dihydroxy-tetrahydrofuran-2-yl]methoxy-hydroxy-phosphoryl] phosphono hydrogen phosphate
   49    51     1     0     0
SMALL
USER_CHARGES

@<TRIPOS>ATOM
      1 PG          6.1569   -2.5731   -2.3715 P.3       1 GTP         1.7996
      2 O1G         7.5269   -2.2628   -2.8987 O.2       1 GTP        -0.8112
      3 O2G         5.7548   -4.1384   -2.3716 O.3       1 GTP        -0.7934
      4 O3G         5.8885   -2.1153   -0.8448 O.3       1 GTP        -0.7934
      5 O3B         4.9480   -1.8706   -3.1819 O.3       1 GTP        -0.8067
      6 PB          4.4843   -1.9721   -4.7262 P.3       1 GTP         1.9429
      7 O1B         5.5231   -1.5423   -5.7197 O.2       1 GTP        -0.8303
      8 O2B         3.9748   -3.4987   -4.8783 O.3       1 GTP        -0.7951
      9 O3A         3.0954   -1.1498   -4.7662 O.3       1 GTP        -0.7994
     10 PA          2.7556    0.3903   -4.4163 P.3       1 GTP         1.7871
     11 O1A         3.4961    1.3896   -5.2568 O.2       1 GTP        -0.8044
     12 O2A         1.1459    0.4566   -4.5634 O.3       1 GTP        -0.8076
     13 O5'         3.0192    0.5132   -2.8246 O.3       1 GTP        -0.5620
     14 C5'         2.2816   -0.2918   -1.9206 C.3       1 GTP         0.1570
     15 C4'         2.7248    0.0226   -0.4980 C.3       1 GTP         0.1395
     16 O4'         2.4697    1.4219   -0.2462 O.3       1 GTP        -0.3978
     17 C3'         1.9404   -0.7419    0.5596 C.3       1 GTP         0.0953
     18 O3'         2.7418   -0.8086    1.7389 O.3       1 GTP        -0.5639
     19 C2'         0.7477    0.1630    0.7858 C.3       1 GTP         0.0640
     20 O2'         0.1373   -0.0577    2.0407 O.3       1 GTP        -0.5724
     21 C1'         1.3733    1.5427    0.6747 C.3       1 GTP         0.4182
     22 N9          0.4520    2.5240    0.1767 N.pl3     1 GTP        -0.4563
     23 C8         -0.2009    2.4849   -0.9792 C.ar      1 GTP         0.2386
     24 N7         -0.9840    3.5454   -1.1481 N.pl3     1 GTP        -0.4432
     25 C5         -0.8090    4.3005   -0.0206 C.ar      1 GTP        -0.2050
     26 C6         -1.4206    5.5724    0.3362 C.ar      1 GTP         0.7599
     27 O6         -2.2199    6.1544   -0.3836 O.2       1 GTP        -0.5606
     28 N1         -0.9680    6.0043    1.5817 N.pl3     1 GTP        -0.5020
     29 C2         -0.0474    5.3055    2.3814 C.ar      1 GTP         0.7674
     30 N2          0.2680    5.9024    3.5740 N.pl3     1 GTP        -0.9014
     31 N3          0.4755    4.1601    2.0138 N.2       1 GTP        -0.6718
     32 C4          0.0611    3.6981    0.8001 C.ar      1 GTP         0.3897
     33 HOG2        5.7397   -4.6250   -3.2231 H         1 GTP         0.5007
     34 HOG3        6.4512   -2.4860   -0.1320 H         1 GTP         0.5007
     35 HOB2        3.5539   -3.7770   -5.7194 H         1 GTP         0.5193
     36 HOA2        0.5962   -0.1674   -4.0433 H         1 GTP         0.4890
     37 H5'         1.2150   -0.0785   -2.0448 H         1 GTP         0.0511
     38 H5''        2.4641   -1.3458   -2.1540 H         1 GTP         0.0511
     39 H4'         3.8049   -0.1388   -0.4009 H         1 GTP         0.1554
     40 H3'         1.6783   -1.7629    0.2715 H         1 GTP         0.0796
     41 HO3'        2.2232   -1.2979    2.3953 H         1 GTP         0.4259
     42 H2'        -0.0011    0.0027    0.0003 H         1 GTP         0.0621
     43 HO2'       -0.1563   -0.9855    2.0596 H         1 GTP         0.4287
     44 H1'         1.7826    1.9024    1.6451 H         1 GTP         0.1525
     45 H8         -0.1126    1.6906   -1.6997 H         1 GTP         0.2675
     46 HN1        -1.3285    6.8855    1.9361 H         1 GTP         0.3601
     47 HN21        0.9153    5.4446    4.1732 H         1 GTP         0.4770
     48 HN22       -0.1624    6.7706    3.7948 H         1 GTP         0.4770
     49 H49        -1.5768    3.7405   -1.9429 H         1 GTP         0.5213
@<TRIPOS>BOND
     1    1    2 2
     2    1    3 1
     3    1    4 1
     4    1    5 1
     5    3   33 1
     6    4   34 1
     7    5    6 1
     8    6    7 2
     9    6    8 1
    10    6    9 1
    11    8   35 1
    12    9   10 1
    13   10   11 2
    14   10   12 1
    15   10   13 1
    16   12   36 1
    17   13   14 1
    18   14   15 1
    19   14   37 1
    20   14   38 1
    21   15   16 1
    22   15   17 1
    23   15   39 1
    24   16   21 1
    25   17   18 1
    26   17   19 1
    27   17   40 1
    28   18   41 1
    29   19   20 1
    30   19   21 1
    31   19   42 1
    32   20   43 1
    33   21   22 1
    34   21   44 1
    35   22   23 ar
    36   22   32 ar
    37   23   24 ar
    38   23   45 1
    39   24   25 ar
    40   24   49 1
    41   25   26 ar
    42   25   32 ar
    43   26   27 2
    44   26   28 ar
    45   28   29 ar
    46   28   46 1
    47   29   30 1
    48   29   31 ar
    49   30   47 1
    50   30   48 1
    51   31   32 ar
@<TRIPOS>SUBSTRUCTURE
     1 GTP         1 GROUP 0 A     ****
@<TRIPOS>MOLECULE
[[5-(2-amino-6-oxo-7,8-dihydro-1~{H}-purin-8-ylium-9-yl)-3,4-dihydroxy-tetrahydrofuran-2-yl]methoxy-hydroxy-phosphoryl] phosphono hydrogen phosphate
   49    51     1     0     0
SMALL
USER_CHARGES

@<TRIPOS>ATOM
      1 PG         -2.6467   -0.9078   -3.9852 P.3       1 GTP         1.7996
      2 O1G        -3.4798   -2.1348   -4.2125 O.2       1 GTP        -0.8112
      3 O2G        -3.4439    0.4951   -4.0756 O.3       1 GTP        -0.7934
      4 O3G        -1.9134   -0.8323   -2.5468 O.3       1 GTP        -0.7934
      5 O3B        -1.4267   -0.7191   -5.0281 O.3       1 GTP        -0.8067
      6 PB         -0.1471   -1.6450   -5.3680 P.3       1 GTP         1.9429
      7 O1B        -0.4853   -3.0179   -5.8695 O.2       1 GTP        -0.8303
      8 O2B         0.7297   -0.7383   -6.3790 O.3       1 GTP        -0.7951
      9 O3A         0.7366   -1.5914   -4.0178 O.3       1 GTP        -0.7994
     10 PA          2.1468   -2.2811   -3.6362 P.3       1 GTP         1.7871
     11 O1A         2.1340   -3.7809   -3.6965 O.2       1 GTP        -0.8044
     12 O2A         3.1891   -1.5809   -4.6563 O.3       1 GTP        -0.8076
     13 O5'         2.5234   -1.6624   -2.1893 O.3       1 GTP        -0.5620
     14 C5'         2.2816   -0.2918   -1.9206 C.3       1 GTP         0.1570
     15 C4'         2.7248    0.0226   -0.4980 C.3       1 GTP         0.1395
     16 O4'         2.4697    1.4219   -0.2462 O.3       1 GTP        -0.3978
     17 C3'         1.9404   -0.7419    0.5596 C.3       1 GTP         0.0953
     18 O3'         2.7418   -0.8086    1.7389 O.3       1 GTP        -0.5639
     19 C2'         0.7477    0.1630    0.7858 C.3       1 GTP         0.0640
     20 O2'         0.1373   -0.0577    2.0407 O.3       1 GTP        -0.5724
     21 C1'         1.3733    1.5427    0.6747 C.3       1 GTP         0.4182
     22 N9          0.4520    2.5240    0.1767 N.pl3     1 GTP        -0.4563
     23 C8         -0.3350    3.3125    0.8998 C.ar      1 GTP         0.2386
     24 N7         -1.0716    4.1171    0.1405 N.pl3     1 GTP        -0.4432
     25 C5         -0.7219    3.8110   -1.1464 C.ar      1 GTP        -0.2050
     26 C6         -1.2133    4.3827   -2.3917 C.ar      1 GTP         0.7599
     27 O6         -2.0567    5.2674   -2.4335 O.2       1 GTP        -0.5606
     28 N1         -0.5926    3.7846   -3.4870 N.pl3     1 GTP        -0.5020
     29 C2          0.3749    2.7691   -3.3983 C.ar      1 GTP         0.7674
     30 N2          0.8624    2.3146   -4.5959 N.pl3     1 GTP        -0.9014
     31 N3          0.7851    2.2875   -2.2493 N.2       1 GTP        -0.6718
     32 C4          0.2042    2.8436   -1.1486 C.ar      1 GTP         0.3897
     33 HOG2       -4.1875    0.6597   -3.4577 H         1 GTP         0.5007
     34 HOG3       -1.2780   -1.5377   -2.3001 H         1 GTP         0.5007
     35 HOB2        1.6145   -1.0576   -6.6571 H         1 GTP         0.5193
     36 HOA2        4.1443   -1.7879   -4.5743 H         1 GTP         0.4890
     37 H5'         2.8429    0.3147   -2.6388 H         1 GTP         0.0511
     38 H5''        1.2125   -0.0898   -2.0417 H         1 GTP         0.0511
     39 H4'         3.8049   -0.1388   -0.4009 H         1 GTP         0.1554
     40 H3'         1.6783   -1.7629    0.2715 H         1 GTP         0.0796
     41 HO3'        2.2232   -1.2979    2.3953 H         1 GTP         0.4259
     42 H2'        -0.0011    0.0027    0.0003 H         1 GTP         0.0621
     43 HO2'       -0.6141    0.5574    2.1082 H         1 GTP         0.4287
     44 H1'         1.7826    1.9024    1.6451 H         1 GTP         0.1525
     45 H8         -0.3766    3.3075    1.9750 H         1 GTP         0.2675
     46 HN1        -0.8580    4.1049   -4.4138 H         1 GTP         0.3601
     47 HN21        0.5108    2.7206   -5.4320 H         1 GTP         0.4770
     48 HN22        1.5490    1.5963   -4.5830 H         1 GTP         0.4770
     49 H49        -1.7420    4.8034    0.4575 H         1 GTP         0.5213
@<TRIPOS>BOND
     1    1    2 2
     2    1    3 1
     3    1    4 1
     4    1    5 1
     5    3   33 1
     6    4   34 1
     7    5    6 1
     8    6    7 2
     9    6    8 1
    10    6    9 1
    11    8   35 1
    12    9   10 1
    13   10   11 2
    14   10   12 1
    15   10   13 1
    16   12   36 1
    17   13   14 1
    18   14   15 1
    19   14   37 1
    20   14   38 1
    21   15   16 1
    22   15   17 1
    23   15   39 1
    24   16   21 1
    25   17   18 1
    26   17   19 1
    27   17   40 1
    28   18   41 1
    29   19   20 1
    30   19   21 1
    31   19   42 1
    32   20   43 1
    33   21   22 1
    34   21   44 1
    35   22   23 ar
    36   22   32 ar
    37   23   24 ar
    38   23   45 1
    39   24   25 ar
    40   24   49 1
    41   25   26 ar
    42   25   32 ar
    43   26   27 2
    44   26   28 ar
    45   28   29 ar
    46   28   46 1
    47   29   30 1
    48   29   31 ar
    49   30   47 1
    50   30   48 1
    51   31   32 ar
@<TRIPOS>SUBSTRUCTURE
     1 GTP         1 GROUP 0 A     ****
@<TRIPOS>MOLECULE
[[5-(2-amino-6-oxo-7,8-dihydro-1~{H}-purin-8-ylium-9-yl)-3,4-dihydroxy-tetrahydrofuran-2-yl]methoxy-hydroxy-phosphoryl] phosphono hydrogen phosphate
   49    51     1     0     0
SMALL
USER_CHARGES

@<TRIPOS>ATOM
      1 PG         -3.5678   -2.2207   -3.4564 P.3       1 GTP         1.7996
      2 O1G        -4.0260   -3.6124   -3.7792 O.2       1 GTP        -0.8112
      3 O2G        -4.2454   -1.0482   -4.3383 O.3       1 GTP        -0.7934
      4 O3G        -3.8311   -1.7468   -1.9337 O.3       1 GTP        -0.7934
      5 O3B        -1.9825   -1.9718   -3.6480 O.3       1 GTP        -0.8067
      6 PB         -0.6931   -2.6614   -2.9611 P.3       1 GTP         1.9429
      7 O1B        -0.6290   -2.5182   -1.4690 O.2       1 GTP        -0.8303
      8 O2B        -0.7304   -4.1826   -3.5067 O.3       1 GTP        -0.7951
      9 O3A         0.5552   -2.0432   -3.7774 O.3       1 GTP        -0.7994
     10 PA          2.1468   -2.2811   -3.6362 P.3       1 GTP         1.7871
     11 O1A         2.5767   -3.7041   -3.8445 O.2       1 GTP        -0.8044
     12 O2A         2.7731   -1.2324   -4.6970 O.3       1 GTP        -0.8076
     13 O5'         2.5234   -1.6624   -2.1893 O.3       1 GTP        -0.5620
     14 C5'         2.2816   -0.2918   -1.9206 C.3       1 GTP         0.1570
     15 C4'         2.7248    0.0226   -0.4980 C.3       1 GTP         0.1395
     16 O4'         2.4697    1.4219   -0.2462 O.3       1 GTP        -0.3978
     17 C3'         1.9404   -0.7419    0.5596 C.3       1 GTP         0.0953
     18 O3'         2.7418   -0.8086    1.7389 O.3       1 GTP        -0.5639
     19 C2'         0.7477    0.1630    0.7858 C.3       1 GTP         0.0640
     20 O2'         0.1373   -0.0577    2.0407 O.3       1 GTP        -0.5724
     21 C1'         1.3733    1.5427    0.6747 C.3       1 GTP         0.4182
     22 N9          0.4520    2.5240    0.1767 N.pl3     1 GTP        -0.4563
     23 C8          0.5671    3.2221   -0.9473 C.ar      1 GTP         0.2386
     24 N7         -0.4560    4.0508   -1.1290 N.pl3     1 GTP        -0.4432
     25 C5         -1.2671    3.8585   -0.0441 C.ar      1 GTP        -0.2050
     26 C6         -2.5318    4.5014    0.2817 C.ar      1 GTP         0.7599
     27 O6         -3.0527    5.3493   -0.4293 O.2       1 GTP        -0.5606
     28 N1         -3.0357    4.0149    1.4868 N.pl3     1 GTP        -0.5020
     29 C2         -2.4069    3.0373    2.2768 C.ar      1 GTP         0.7674
     30 N2         -3.0679    2.6964    3.4278 N.pl3     1 GTP        -0.9014
     31 N3         -1.2653    2.4872    1.9379 N.2       1 GTP        -0.6718
     32 C4         -0.7342    2.9334    0.7643 C.ar      1 GTP         0.3897
     33 HOG2       -5.2191   -0.9336   -4.3085 H         1 GTP         0.5007
     34 HOG3       -3.4203   -2.2532   -1.2010 H         1 GTP         0.5007
     35 HOB2        0.0168   -4.7815   -3.2945 H         1 GTP         0.5193
     36 HOA2        3.7478   -1.1363   -4.7496 H         1 GTP         0.4890
     37 H5'         2.8429    0.3147   -2.6388 H         1 GTP         0.0511
     38 H5''        1.2125   -0.0898   -2.0417 H         1 GTP         0.0511
     39 H4'         3.8049   -0.1388   -0.4009 H         1 GTP         0.1554
     40 H3'         1.6783   -1.7629    0.2715 H         1 GTP         0.0796
     41 HO3'        2.2232   -1.2979    2.3953 H         1 GTP         0.4259
     42 H2'        -0.0011    0.0027    0.0003 H         1 GTP         0.0621
     43 HO2'       -0.1563   -0.9855    2.0596 H         1 GTP         0.4287
     44 H1'         1.7826    1.9024    1.6451 H         1 GTP         0.1525
     45 H8          1.3888    3.1325   -1.6361 H         1 GTP         0.2675
     46 HN1        -3.9188    4.3932    1.8170 H         1 GTP         0.3601
     47 HN21       -2.6609    2.0087    4.0186 H         1 GTP         0.4770
     48 HN22       -3.9293    3.1496    3.6283 H         1 GTP         0.4770
     49 H49        -0.5938    4.6820   -1.9060 H         1 GTP         0.5213
@<TRIPOS>BOND
     1    1    2 2
     2    1    3 1
     3    1    4 1
     4    1    5 1
     5    3   33 1
     6    4   34 1
     7    5    6 1
     8    6    7 2
     9    6    8 1
    10    6    9 1
    11    8   35 1
    12    9   10 1
    13   10   11 2
    14   10   12 1
    15   10   13 1
    16   12   36 1
    17   13   14 1
    18   14   15 1
    19   14   37 1
    20   14   38 1
    21   15   16 1
    22   15   17 1
    23   15   39 1
    24   16   21 1
    25   17   18 1
    26   17   19 1
    27   17   40 1
    28   18   41 1
    29   19   20 1
    30   19   21 1
    31   19   42 1
    32   20   43 1
    33   21   22 1
    34   21   44 1
    35   22   23 ar
    36   22   32 ar
    37   23   24 ar
    38   23   45 1
    39   24   25 ar
    40   24   49 1
    41   25   26 ar
    42   25   32 ar
    43   26   27 2
    44   26   28 ar
    45   28   29 ar
    46   28   46 1
    47   29   30 1
    48   29   31 ar
    49   30   47 1
    50   30   48 1
    51   31   32 ar
@<TRIPOS>SUBSTRUCTURE
     1 GTP         1 GROUP 0 A     ****
@<TRIPOS>MOLECULE
[[5-(2-amino-6-oxo-7,8-dihydro-1~{H}-purin-8-ylium-9-yl)-3,4-dihydroxy-tetrahydrofuran-2-yl]methoxy-hydroxy-phosphoryl] phosphono hydrogen phosphate
   49    51     1     0     0
SMALL
USER_CHARGES

@<TRIPOS>ATOM
      1 PG          3.4678   -4.8666   -6.5494 P.3       1 GTP         1.7996
      2 O1G         4.2094   -4.8368   -7.8533 O.2       1 GTP        -0.8112
      3 O2G         1.8992   -5.2412   -6.6550 O.3       1 GTP        -0.7934
      4 O3G         4.0339   -5.9193   -5.4612 O.3       1 GTP        -0.7934
      5 O3B         3.4703   -3.4675   -5.7406 O.3       1 GTP        -0.8067
      6 PB          2.9251   -1.9973   -6.1298 P.3       1 GTP         1.9429
      7 O1B         3.5597   -1.3990   -7.3506 O.2       1 GTP        -0.8303
      8 O2B         1.3217   -2.1869   -6.2090 O.3       1 GTP        -0.7951
      9 O3A         3.0954   -1.1498   -4.7662 O.3       1 GTP        -0.7994
     10 PA          2.7556    0.3903   -4.4163 P.3       1 GTP         1.7871
     11 O1A         3.4961    1.3896   -5.2568 O.2       1 GTP        -0.8044
     12 O2A         1.1459    0.4566   -4.5634 O.3       1 GTP        -0.8076
     13 O5'         3.0192    0.5132   -2.8246 O.3       1 GTP        -0.5620
     14 C5'         2.2816   -0.2918   -1.9206 C.3       1 GTP         0.1570
     15 C4'         2.7248    0.0226   -0.4980 C.3       1 GTP         0.1395
     16 O4'         2.4697    1.4219   -0.2462 O.3       1 GTP        -0.3978
     17 C3'         1.9404   -0.7419    0.5596 C.3       1 GTP         0.0953
     18 O3'         2.7418   -0.8086    1.7389 O.3       1 GTP        -0.5639
     19 C2'         0.7477    0.1630    0.7858 C.3       1 GTP         0.0640
     20 O2'         0.1373   -0.0577    2.0407 O.3       1 GTP        -0.5724
     21 C1'         1.3733    1.5427    0.6747 C.3       1 GTP         0.4182
     22 N9          0.4520    2.5240    0.1767 N.pl3     1 GTP        -0.4563
     23 C8         -0.2009    2.4849   -0.9792 C.ar      1 GTP         0.2386
     24 N7         -0.9840    3.5454   -1.1481 N.pl3     1 GTP        -0.4432
     25 C5         -0.8090    4.3005   -0.0206 C.ar      1 GTP        -0.2050
     26 C6         -1.4206    5.5724    0.3362 C.ar      1 GTP         0.7599
     27 O6         -2.2199    6.1544   -0.3836 O.2       1 GTP        -0.5606
     28 N1         -0.9680    6.0043    1.5817 N.pl3     1 GTP        -0.5020
     29 C2         -0.0474    5.3055    2.3814 C.ar      1 GTP         0.7674
     30 N2          0.2680    5.9024    3.5740 N.pl3     1 GTP        -0.9014
     31 N3          0.4755    4.1601    2.0138 N.2       1 GTP        -0.6718
     32 C4          0.0611    3.6981    0.8001 C.ar      1 GTP         0.3897
     33 HOG2        1.6424   -6.1088   -7.0335 H         1 GTP         0.5007
     34 HOG3        4.9588   -5.8270   -5.1479 H         1 GTP         0.5007
     35 HOB2        0.9454   -2.7574   -6.9125 H         1 GTP         0.5193
     36 HOA2        0.6824    1.2891   -4.3308 H         1 GTP         0.4890
     37 H5'         1.2150   -0.0785   -2.0448 H         1 GTP         0.0511
     38 H5''        2.4641   -1.3458   -2.1540 H         1 GTP         0.0511
     39 H4'         3.8049   -0.1388   -0.4009 H         1 GTP         0.1554
     40 H3'         1.6783   -1.7629    0.2715 H         1 GTP         0.0796
     41 HO3'        2.2232   -1.2979    2.3953 H         1 GTP         0.4259
     42 H2'        -0.0011    0.0027    0.0003 H         1 GTP         0.0621
     43 HO2'       -0.6141    0.5574    2.1082 H         1 GTP         0.4287
     44 H1'         1.7826    1.9024    1.6451 H         1 GTP         0.1525
     45 H8         -0.1126    1.6906   -1.6997 H         1 GTP         0.2675
     46 HN1        -1.3285    6.8855    1.9361 H         1 GTP         0.3601
     47 HN21        0.9153    5.4446    4.1732 H         1 GTP         0.4770
     48 HN22       -0.1624    6.7706    3.7948 H         1 GTP         0.4770
     49 H49        -1.5768    3.7405   -1.9429 H         1 GTP         0.5213
@<TRIPOS>BOND
     1    1    2 2
     2    1    3 1
     3    1    4 1
     4    1    5 1
     5    3   33 1
     6    4   34 1
     7    5    6 1
     8    6    7 2
     9    6    8 1
    10    6    9 1
    11    8   35 1
    12    9   10 1
    13   10   11 2
    14   10   12 1
    15   10   13 1
    16   12   36 1
    17   13   14 1
    18   14   15 1
    19   14   37 1
    20   14   38 1
    21   15   16 1
    22   15   17 1
    23   15   39 1
    24   16   21 1
    25   17   18 1
    26   17   19 1
    27   17   40 1
    28   18   41 1
    29   19   20 1
    30   19   21 1
    31   19   42 1
    32   20   43 1
    33   21   22 1
    34   21   44 1
    35   22   23 ar
    36   22   32 ar
    37   23   24 ar
    38   23   45 1
    39   24   25 ar
    40   24   49 1
    41   25   26 ar
    42   25   32 ar
    43   26   27 2
    44   26   28 ar
    45   28   29 ar
    46   28   46 1
    47   29   30 1
    48   29   31 ar
    49   30   47 1
    50   30   48 1
    51   31   32 ar
@<TRIPOS>SUBSTRUCTURE
     1 GTP         1 GROUP 0 A     ****
@<TRIPOS>MOLECULE
[[5-(2-amino-6-oxo-7,8-dihydro-1~{H}-purin-8-ylium-9-yl)-3,4-dihydroxy-tetrahydrofuran-2-yl]methoxy-hydroxy-phosphoryl] phosphono hydrogen phosphate
   49    51     1     0     0
SMALL
USER_CHARGES

@<TRIPOS>ATOM
      1 PG          1.6198   -0.7770   -8.8983 P.3       1 GTP         1.7996
      2 O1G         0.9292   -2.0585   -9.2616 O.2       1 GTP        -0.8112
      3 O2G         3.1033   -0.5934   -9.5125 O.3       1 GTP        -0.7934
      4 O3G         0.8530    0.5702   -9.3563 O.3       1 GTP        -0.7934
      5 O3B         1.8353   -0.5540   -7.3123 O.3       1 GTP        -0.8067
      6 PB          0.7876   -0.4517   -6.0867 P.3       1 GTP         1.9429
      7 O1B        -0.2027    0.6693   -6.2035 O.2       1 GTP        -0.8303
      8 O2B         0.1453   -1.9327   -6.0013 O.3       1 GTP        -0.7951
      9 O3A         1.7298   -0.4190   -4.7761 O.3       1 GTP        -0.7994
     10 PA          2.8837    0.6137   -4.3156 P.3       1 GTP         1.7871
     11 O1A         4.0324    0.7203   -5.2762 O.2       1 GTP        -0.8044
     12 O2A         2.0739    1.9954   -4.0872 O.3       1 GTP        -0.8076
     13 O5'         3.2876    0.1332   -2.8242 O.3       1 GTP        -0.5620
     14 C5'         2.2816   -0.2918   -1.9206 C.3       1 GTP         0.1570
     15 C4'         2.7248    0.0226   -0.4980 C.3       1 GTP         0.1395
     16 O4'         2.4697    1.4219   -0.2462 O.3       1 GTP        -0.3978
     17 C3'         1.9404   -0.7419    0.5596 C.3       1 GTP         0.0953
     18 O3'         2.7418   -0.8086    1.7389 O.3       1 GTP        -0.5639
     19 C2'         0.7477    0.1630    0.7858 C.3       1 GTP         0.0640
     20 O2'         0.1373   -0.0577    2.0407 O.3       1 GTP        -0.5724
     21 C1'         1.3733    1.5427    0.6747 C.3       1 GTP         0.4182
     22 N9          0.4520    2.5240    0.1767 N.pl3     1 GTP        -0.4563
     23 C8          0.2203    2.8205   -1.0970 C.ar      1 GTP         0.2386
     24 N7         -0.6947    3.7752   -1.2304 N.pl3     1 GTP        -0.4432
     25 C5         -1.0607    4.0987    0.0476 C.ar      1 GTP        -0.2050
     26 C6         -2.0310    5.0839    0.5029 C.ar      1 GTP         0.7599
     27 O6         -2.6779    5.7867   -0.2609 O.2       1 GTP        -0.5606
     28 N1         -2.1030    5.0975    1.8948 N.pl3     1 GTP        -0.5020
     29 C2         -1.3422    4.2721    2.7403 C.ar      1 GTP         0.7674
     30 N2         -1.5624    4.4419    4.0823 N.pl3     1 GTP        -0.9014
     31 N3         -0.4796    3.3981    2.2792 N.2       1 GTP        -0.6718
     32 C4         -0.3754    3.3496    0.9208 C.ar      1 GTP         0.3897
     33 HOG2        3.2178   -0.5951  -10.4866 H         1 GTP         0.5007
     34 HOG3       -0.0504    0.7417   -9.0151 H         1 GTP         0.5007
     35 HOB2       -0.4106   -2.2526   -6.7434 H         1 GTP         0.5193
     36 HOA2        2.5542    2.7733   -3.7319 H         1 GTP         0.4890
     37 H5'         1.3495    0.2323   -2.1554 H         1 GTP         0.0511
     38 H5''        2.1262   -1.3685   -2.0437 H         1 GTP         0.0511
     39 H4'         3.8049   -0.1388   -0.4009 H         1 GTP         0.1554
     40 H3'         1.6783   -1.7629    0.2715 H         1 GTP         0.0796
     41 HO3'        2.2232   -1.2979    2.3953 H         1 GTP         0.4259
     42 H2'        -0.0011    0.0027    0.0003 H         1 GTP         0.0621
     43 HO2'       -0.6141    0.5574    2.1082 H         1 GTP         0.4287
     44 H1'         1.7826    1.9024    1.6451 H         1 GTP         0.1525
     45 H8          0.7110    2.3472   -1.9295 H         1 GTP         0.2675
     46 HN1        -2.7504    5.7495    2.3282 H         1 GTP         0.3601
     47 HN21       -1.0467    3.8796    4.7190 H         1 GTP         0.4770
     48 HN22       -2.2294    5.1209    4.3680 H         1 GTP         0.4770
     49 H49        -1.0382    4.1687   -2.0954 H         1 GTP         0.5213
@<TRIPOS>BOND
     1    1    2 2
     2    1    3 1
     3    1    4 1
     4    1    5 1
     5    3   33 1
     6    4   34 1
     7    5    6 1
     8    6    7 2
     9    6    8 1
    10    6    9 1
    11    8   35 1
    12    9   10 1
    13   10   11 2
    14   10   12 1
    15   10   13 1
    16   12   36 1
    17   13   14 1
    18   14   15 1
    19   14   37 1
    20   14   38 1
    21   15   16 1
    22   15   17 1
    23   15   39 1
    24   16   21 1
    25   17   18 1
    26   17   19 1
    27   17   40 1
    28   18   41 1
    29   19   20 1
    30   19   21 1
    31   19   42 1
    32   20   43 1
    33   21   22 1
    34   21   44 1
    35   22   23 ar
    36   22   32 ar
    37   23   24 ar
    38   23   45 1
    39   24   25 ar
    40   24   49 1
    41   25   26 ar
    42   25   32 ar
    43   26   27 2
    44   26   28 ar
    45   28   29 ar
    46   28   46 1
    47   29   30 1
    48   29   31 ar
    49   30   47 1
    50   30   48 1
    51   31   32 ar
@<TRIPOS>SUBSTRUCTURE
     1 GTP         1 GROUP 0 A     ****
@<TRIPOS>MOLECULE
[[5-(2-amino-6-oxo-7,8-dihydro-1~{H}-purin-8-ylium-9-yl)-3,4-dihydroxy-tetrahydrofuran-2-yl]methoxy-hydroxy-phosphoryl] phosphono hydrogen phosphate
   49    51     1     0     0
SMALL
USER_CHARGES

@<TRIPOS>ATOM
      1 PG          0.0857   -3.4098   -5.3001 P.3       1 GTP         1.7996
      2 O1G        -0.7430   -2.3281   -4.6723 O.2       1 GTP        -0.8112
      3 O2G         0.5778   -4.5750   -4.2941 O.3       1 GTP        -0.7934
      4 O3G        -0.6380   -4.2239   -6.4942 O.3       1 GTP        -0.7934
      5 O3B         1.4562   -2.8964   -5.9856 O.3       1 GTP        -0.8067
      6 PB          2.7414   -2.1273   -5.3799 P.3       1 GTP         1.9429
      7 O1B         3.4563   -2.8691   -4.2892 O.2       1 GTP        -0.8303
      8 O2B         3.6365   -1.7838   -6.6814 O.3       1 GTP        -0.7951
      9 O3A         2.1656   -0.6739   -4.9762 O.3       1 GTP        -0.7994
     10 PA          2.8837    0.6137   -4.3156 P.3       1 GTP         1.7871
     11 O1A         4.0175    1.1693   -5.1275 O.2       1 GTP        -0.8044
     12 O2A         1.6579    1.6445   -4.0876 O.3       1 GTP        -0.8076
     13 O5'         3.2876    0.1332   -2.8242 O.3       1 GTP        -0.5620
     14 C5'         2.2816   -0.2918   -1.9206 C.3       1 GTP         0.1570
     15 C4'         2.7248    0.0226   -0.4980 C.3       1 GTP         0.1395
     16 O4'         2.4697    1.4219   -0.2462 O.3       1 GTP        -0.3978
     17 C3'         1.9404   -0.7419    0.5596 C.3       1 GTP         0.0953
     18 O3'         2.7418   -0.8086    1.7389 O.3       1 GTP        -0.5639
     19 C2'         0.7477    0.1630    0.7858 C.3       1 GTP         0.0640
     20 O2'         0.1373   -0.0577    2.0407 O.3       1 GTP        -0.5724
     21 C1'         1.3733    1.5427    0.6747 C.3       1 GTP         0.4182
     22 N9          0.4520    2.5240    0.1767 N.pl3     1 GTP        -0.4563
     23 C8         -0.2009    2.4849   -0.9792 C.ar      1 GTP         0.2386
     24 N7         -0.9840    3.5454   -1.1481 N.pl3     1 GTP        -0.4432
     25 C5         -0.8090    4.3005   -0.0206 C.ar      1 GTP        -0.2050
     26 C6         -1.4206    5.5724    0.3362 C.ar      1 GTP         0.7599
     27 O6         -2.2199    6.1544   -0.3836 O.2       1 GTP        -0.5606
     28 N1         -0.9680    6.0043    1.5817 N.pl3     1 GTP        -0.5020
     29 C2         -0.0474    5.3055    2.3814 C.ar      1 GTP         0.7674
     30 N2          0.2680    5.9024    3.5740 N.pl3     1 GTP        -0.9014
     31 N3          0.4755    4.1601    2.0138 N.2       1 GTP        -0.6718
     32 C4          0.0611    3.6981    0.8001 C.ar      1 GTP         0.3897
     33 HOG2        1.1390   -4.3343   -3.5265 H         1 GTP         0.5007
     34 HOG3       -1.4670   -4.7117   -6.3019 H         1 GTP         0.5007
     35 HOB2        4.4378   -1.2285   -6.5733 H         1 GTP         0.5193
     36 HOA2        1.8312    2.4926   -3.6265 H         1 GTP         0.4890
     37 H5'         1.3495    0.2323   -2.1554 H         1 GTP         0.0511
     38 H5''        2.1262   -1.3685   -2.0437 H         1 GTP         0.0511
     39 H4'         3.8049   -0.1388   -0.4009 H         1 GTP         0.1554
     40 H3'         1.6783   -1.7629    0.2715 H         1 GTP         0.0796
     41 HO3'        2.2232   -1.2979    2.3953 H         1 GTP         0.4259
     42 H2'        -0.0011    0.0027    0.0003 H         1 GTP         0.0621
     43 HO2'       -0.6141    0.5574    2.1082 H         1 GTP         0.4287
     44 H1'         1.7826    1.9024    1.6451 H         1 GTP         0.1525
     45 H8         -0.1126    1.6906   -1.6997 H         1 GTP         0.2675
     46 HN1        -1.3285    6.8855    1.9361 H         1 GTP         0.3601
     47 HN21        0.9153    5.4446    4.1732 H         1 GTP         0.4770
     48 HN22       -0.1624    6.7706    3.7948 H         1 GTP         0.4770
     49 H49        -1.5768    3.7405   -1.9429 H         1 GTP         0.5213
@<TRIPOS>BOND
     1    1    2 2
     2    1    3 1
     3    1    4 1
     4    1    5 1
     5    3   33 1
     6    4   34 1
     7    5    6 1
     8    6    7 2
     9    6    8 1
    10    6    9 1
    11    8   35 1
    12    9   10 1
    13   10   11 2
    14   10   12 1
    15   10   13 1
    16   12   36 1
    17   13   14 1
    18   14   15 1
    19   14   37 1
    20   14   38 1
    21   15   16 1
    22   15   17 1
    23   15   39 1
    24   16   21 1
    25   17   18 1
    26   17   19 1
    27   17   40 1
    28   18   41 1
    29   19   20 1
    30   19   21 1
    31   19   42 1
    32   20   43 1
    33   21   22 1
    34   21   44 1
    35   22   23 ar
    36   22   32 ar
    37   23   24 ar
    38   23   45 1
    39   24   25 ar
    40   24   49 1
    41   25   26 ar
    42   25   32 ar
    43   26   27 2
    44   26   28 ar
    45   28   29 ar
    46   28   46 1
    47   29   30 1
    48   29   31 ar
    49   30   47 1
    50   30   48 1
    51   31   32 ar
@<TRIPOS>SUBSTRUCTURE
     1 GTP         1 GROUP 0 A     ****
@<TRIPOS>MOLECULE
[[5-(2-amino-6-oxo-7,8-dihydro-1~{H}-purin-8-ylium-9-yl)-3,4-dihydroxy-tetrahydrofuran-2-yl]methoxy-hydroxy-phosphoryl] phosphono hydrogen phosphate
   49    51     1     0     0
SMALL
USER_CHARGES

@<TRIPOS>ATOM
      1 PG         -1.0347    0.2253   -5.7545 P.3       1 GTP         1.7996
      2 O1G         0.1709    1.1177   -5.7186 O.2       1 GTP        -0.8112
      3 O2G        -2.1089    0.4674   -4.5717 O.3       1 GTP        -0.7934
      4 O3G        -1.9255    0.3282   -7.0993 O.3       1 GTP        -0.7934
      5 O3B        -0.7073   -1.3540   -5.6526 O.3       1 GTP        -0.8067
      6 PB          0.0292   -2.2300   -4.5123 P.3       1 GTP         1.9429
      7 O1B        -0.6325   -2.1861   -3.1665 O.2       1 GTP        -0.8303
      8 O2B         0.1523   -3.7005   -5.1724 O.3       1 GTP        -0.7951
      9 O3A         1.5582   -1.7135   -4.5572 O.3       1 GTP        -0.7994
     10 PA          2.8567   -2.1438   -3.6977 P.3       1 GTP         1.7871
     11 O1A         3.2289   -3.5921   -3.8294 O.2       1 GTP        -0.8044
     12 O2A         3.9952   -1.1130   -4.2062 O.3       1 GTP        -0.8076
     13 O5'         2.5234   -1.6624   -2.1893 O.3       1 GTP        -0.5620
     14 C5'         2.2816   -0.2918   -1.9206 C.3       1 GTP         0.1570
     15 C4'         2.7248    0.0226   -0.4980 C.3       1 GTP         0.1395
     16 O4'         2.4697    1.4219   -0.2462 O.3       1 GTP        -0.3978
     17 C3'         1.9404   -0.7419    0.5596 C.3       1 GTP         0.0953
     18 O3'         2.7418   -0.8086    1.7389 O.3       1 GTP        -0.5639
     19 C2'         0.7477    0.1630    0.7858 C.3       1 GTP         0.0640
     20 O2'         0.1373   -0.0577    2.0407 O.3       1 GTP        -0.5724
     21 C1'         1.3733    1.5427    0.6747 C.3       1 GTP         0.4182
     22 N9          0.4520    2.5240    0.1767 N.pl3     1 GTP        -0.4563
     23 C8         -0.2009    2.4849   -0.9792 C.ar      1 GTP         0.2386
     24 N7         -0.9840    3.5454   -1.1481 N.pl3     1 GTP        -0.4432
     25 C5         -0.8090    4.3005   -0.0206 C.ar      1 GTP        -0.2050
     26 C6         -1.4206    5.5724    0.3362 C.ar      1 GTP         0.7599
     27 O6         -2.2199    6.1544   -0.3836 O.2       1 GTP        -0.5606
     28 N1         -0.9680    6.0043    1.5817 N.pl3     1 GTP        -0.5020
     29 C2         -0.0474    5.3055    2.3814 C.ar      1 GTP         0.7674
     30 N2          0.2680    5.9024    3.5740 N.pl3     1 GTP        -0.9014
     31 N3          0.4755    4.1601    2.0138 N.2       1 GTP        -0.6718
     32 C4          0.0611    3.6981    0.8001 C.ar      1 GTP         0.3897
     33 HOG2       -2.5332    1.3478   -4.4880 H         1 GTP         0.5007
     34 HOG3       -1.5097    0.1151   -7.9618 H         1 GTP         0.5007
     35 HOB2       -0.6662   -4.2105   -5.3511 H         1 GTP         0.5193
     36 HOA2        4.8757   -1.1284   -3.7745 H         1 GTP         0.4890
     37 H5'         2.8429    0.3147   -2.6388 H         1 GTP         0.0511
     38 H5''        1.2125   -0.0898   -2.0417 H         1 GTP         0.0511
     39 H4'         3.8049   -0.1388   -0.4009 H         1 GTP         0.1554
     40 H3'         1.6783   -1.7629    0.2715 H         1 GTP         0.0796
     41 HO3'        2.2232   -1.2979    2.3953 H         1 GTP         0.4259
     42 H2'        -0.0011    0.0027    0.0003 H         1 GTP         0.0621
     43 HO2'       -0.6141    0.5574    2.1082 H         1 GTP         0.4287
     44 H1'         1.7826    1.9024    1.6451 H         1 GTP         0.1525
     45 H8         -0.1126    1.6906   -1.6997 H         1 GTP         0.2675
     46 HN1        -1.3285    6.8855    1.9361 H         1 GTP         0.3601
     47 HN21        0.9153    5.4446    4.1732 H         1 GTP         0.4770
     48 HN22       -0.1624    6.7706    3.7948 H         1 GTP         0.4770
     49 H49        -1.5768    3.7405   -1.9429 H         1 GTP         0.5213
@<TRIPOS>BOND
     1    1    2 2
     2    1    3 1
     3    1    4 1
     4    1    5 1
     5    3   33 1
     6    4   34 1
     7    5    6 1
     8    6    7 2
     9    6    8 1
    10    6    9 1
    11    8   35 1
    12    9   10 1
    13   10   11 2
    14   10   12 1
    15   10   13 1
    16   12   36 1
    17   13   14 1
    18   14   15 1
    19   14   37 1
    20   14   38 1
    21   15   16 1
    22   15   17 1
    23   15   39 1
    24   16   21 1
    25   17   18 1
    26   17   19 1
    27   17   40 1
    28   18   41 1
    29   19   20 1
    30   19   21 1
    31   19   42 1
    32   20   43 1
    33   21   22 1
    34   21   44 1
    35   22   23 ar
    36   22   32 ar
    37   23   24 ar
    38   23   45 1
    39   24   25 ar
    40   24   49 1
    41   25   26 ar
    42   25   32 ar
    43   26   27 2
    44   26   28 ar
    45   28   29 ar
    46   28   46 1
    47   29   30 1
    48   29   31 ar
    49   30   47 1
    50   30   48 1
    51   31   32 ar
@<TRIPOS>SUBSTRUCTURE
     1 GTP         1 GROUP 0 A     ****
@<TRIPOS>MOLECULE
[[5-(2-amino-6-oxo-7,8-dihydro-1~{H}-purin-8-ylium-9-yl)-3,4-dihydroxy-tetrahydrofuran-2-yl]methoxy-hydroxy-phosphoryl] phosphono hydrogen phosphate
   49    51     1     0     0
SMALL
USER_CHARGES

@<TRIPOS>ATOM
      1 PG         -1.3866   -2.3500   -6.6976 P.3       1 GTP         1.7996
      2 O1G        -2.5696   -1.4295   -6.7619 O.2       1 GTP        -0.8112
      3 O2G        -1.6637   -3.7839   -6.0056 O.3       1 GTP        -0.7934
      4 O3G        -0.7415   -2.7402   -8.1274 O.3       1 GTP        -0.7934
      5 O3B        -0.1242   -1.7683   -5.8732 O.3       1 GTP        -0.8067
      6 PB          0.7876   -0.4517   -6.0867 P.3       1 GTP         1.9429
      7 O1B         1.5037   -0.3950   -7.4038 O.2       1 GTP        -0.8303
      8 O2B        -0.2277    0.7732   -5.8006 O.3       1 GTP        -0.7951
      9 O3A         1.7298   -0.4190   -4.7761 O.3       1 GTP        -0.7994
     10 PA          2.8837    0.6137   -4.3156 P.3       1 GTP         1.7871
     11 O1A         4.0324    0.7203   -5.2762 O.2       1 GTP        -0.8044
     12 O2A         2.0739    1.9954   -4.0872 O.3       1 GTP        -0.8076
     13 O5'         3.2876    0.1332   -2.8242 O.3       1 GTP        -0.5620
     14 C5'         2.2816   -0.2918   -1.9206 C.3       1 GTP         0.1570
     15 C4'         2.7248    0.0226   -0.4980 C.3       1 GTP         0.1395
     16 O4'         2.4697    1.4219   -0.2462 O.3       1 GTP        -0.3978
     17 C3'         1.9404   -0.7419    0.5596 C.3       1 GTP         0.0953
     18 O3'         2.7418   -0.8086    1.7389 O.3       1 GTP        -0.5639
     19 C2'         0.7477    0.1630    0.7858 C.3       1 GTP         0.0640
     20 O2'         0.1373   -0.0577    2.0407 O.3       1 GTP        -0.5724
     21 C1'         1.3733    1.5427    0.6747 C.3       1 GTP         0.4182
     22 N9          0.4520    2.5240    0.1767 N.pl3     1 GTP        -0.4563
     23 C8          0.2203    2.8205   -1.0970 C.ar      1 GTP         0.2386
     24 N7         -0.6947    3.7752   -1.2304 N.pl3     1 GTP        -0.4432
     25 C5         -1.0607    4.0987    0.0476 C.ar      1 GTP        -0.2050
     26 C6         -2.0310    5.0839    0.5029 C.ar      1 GTP         0.7599
     27 O6         -2.6779    5.7867   -0.2609 O.2       1 GTP        -0.5606
     28 N1         -2.1030    5.0975    1.8948 N.pl3     1 GTP        -0.5020
     29 C2         -1.3422    4.2721    2.7403 C.ar      1 GTP         0.7674
     30 N2         -1.5624    4.4419    4.0823 N.pl3     1 GTP        -0.9014
     31 N3         -0.4796    3.3981    2.2792 N.2       1 GTP        -0.6718
     32 C4         -0.3754    3.3496    0.9208 C.ar      1 GTP         0.3897
     33 HOG2       -2.3389   -4.3779   -6.3972 H         1 GTP         0.5007
     34 HOG3       -0.3912   -2.0258   -8.7011 H         1 GTP         0.5007
     35 HOB2        0.1258    1.6879   -5.7805 H         1 GTP         0.5193
     36 HOA2        2.5542    2.7733   -3.7319 H         1 GTP         0.4890
     37 H5'         1.3495    0.2323   -2.1554 H         1 GTP         0.0511
     38 H5''        2.1262   -1.3685   -2.0437 H         1 GTP         0.0511
     39 H4'         3.8049   -0.1388   -0.4009 H         1 GTP         0.1554
     40 H3'         1.6783   -1.7629    0.2715 H         1 GTP         0.0796
     41 HO3'        2.2232   -1.2979    2.3953 H         1 GTP         0.4259
     42 H2'        -0.0011    0.0027    0.0003 H         1 GTP         0.0621
     43 HO2'       -0.6141    0.5574    2.1082 H         1 GTP         0.4287
     44 H1'         1.7826    1.9024    1.6451 H         1 GTP         0.1525
     45 H8          0.7110    2.3472   -1.9295 H         1 GTP         0.2675
     46 HN1        -2.7504    5.7495    2.3282 H         1 GTP         0.3601
     47 HN21       -1.0467    3.8796    4.7190 H         1 GTP         0.4770
     48 HN22       -2.2294    5.1209    4.3680 H         1 GTP         0.4770
     49 H49        -1.0382    4.1687   -2.0954 H         1 GTP         0.5213
@<TRIPOS>BOND
     1    1    2 2
     2    1    3 1
     3    1    4 1
     4    1    5 1
     5    3   33 1
     6    4   34 1
     7    5    6 1
     8    6    7 2
     9    6    8 1
    10    6    9 1
    11    8   35 1
    12    9   10 1
    13   10   11 2
    14   10   12 1
    15   10   13 1
    16   12   36 1
    17   13   14 1
    18   14   15 1
    19   14   37 1
    20   14   38 1
    21   15   16 1
    22   15   17 1
    23   15   39 1
    24   16   21 1
    25   17   18 1
    26   17   19 1
    27   17   40 1
    28   18   41 1
    29   19   20 1
    30   19   21 1
    31   19   42 1
    32   20   43 1
    33   21   22 1
    34   21   44 1
    35   22   23 ar
    36   22   32 ar
    37   23   24 ar
    38   23   45 1
    39   24   25 ar
    40   24   49 1
    41   25   26 ar
    42   25   32 ar
    43   26   27 2
    44   26   28 ar
    45   28   29 ar
    46   28   46 1
    47   29   30 1
    48   29   31 ar
    49   30   47 1
    50   30   48 1
    51   31   32 ar
@<TRIPOS>SUBSTRUCTURE
     1 GTP         1 GROUP 0 A     ****
@<TRIPOS>MOLECULE
[[5-(2-amino-6-oxo-7,8-dihydro-1~{H}-purin-8-ylium-9-yl)-3,4-dihydroxy-tetrahydrofuran-2-yl]methoxy-hydroxy-phosphoryl] phosphono hydrogen phosphate
   49    51     1     0     0
SMALL
USER_CHARGES

@<TRIPOS>ATOM
      1 PG         -2.3420   -1.8239   -3.4168 P.3       1 GTP         1.7996
      2 O1G        -1.7949   -0.5397   -3.9668 O.2       1 GTP        -0.8112
      3 O2G        -2.6745   -1.8122   -1.8354 O.3       1 GTP        -0.7934
      4 O3G        -3.7241   -2.3252   -4.0886 O.3       1 GTP        -0.7934
      5 O3B        -1.3668   -3.1008   -3.5903 O.3       1 GTP        -0.8067
      6 PB          0.1291   -3.3944   -3.0552 P.3       1 GTP         1.9429
      7 O1B         0.2742   -3.3699   -1.5621 O.2       1 GTP        -0.8303
      8 O2B         0.5269   -4.7919   -3.7637 O.3       1 GTP        -0.7951
      9 O3A         1.0421   -2.3368   -3.8642 O.3       1 GTP        -0.7994
     10 PA          2.6333   -2.0590   -3.8369 P.3       1 GTP         1.7871
     11 O1A         3.4709   -3.2427   -4.2251 O.2       1 GTP        -0.8044
     12 O2A         2.8015   -0.7752   -4.8069 O.3       1 GTP        -0.8076
     13 O5'         2.9196   -1.4816   -2.3527 O.3       1 GTP        -0.5620
     14 C5'         2.2816   -0.2918   -1.9206 C.3       1 GTP         0.1570
     15 C4'         2.7248    0.0226   -0.4980 C.3       1 GTP         0.1395
     16 O4'         2.4697    1.4219   -0.2462 O.3       1 GTP        -0.3978
     17 C3'         1.9404   -0.7419    0.5596 C.3       1 GTP         0.0953
     18 O3'         2.7418   -0.8086    1.7389 O.3       1 GTP        -0.5639
     19 C2'         0.7477    0.1630    0.7858 C.3       1 GTP         0.0640
     20 O2'         0.1373   -0.0577    2.0407 O.3       1 GTP        -0.5724
     21 C1'         1.3733    1.5427    0.6747 C.3       1 GTP         0.4182
     22 N9          0.4520    2.5240    0.1767 N.pl3     1 GTP        -0.4563
     23 C8         -0.3350    3.3125    0.8998 C.ar      1 GTP         0.2386
     24 N7         -1.0716    4.1171    0.1405 N.pl3     1 GTP        -0.4432
     25 C5         -0.7219    3.8110   -1.1464 C.ar      1 GTP        -0.2050
     26 C6         -1.2133    4.3827   -2.3917 C.ar      1 GTP         0.7599
     27 O6         -2.0567    5.2674   -2.4335 O.2       1 GTP        -0.5606
     28 N1         -0.5926    3.7846   -3.4870 N.pl3     1 GTP        -0.5020
     29 C2          0.3749    2.7691   -3.3983 C.ar      1 GTP         0.7674
     30 N2          0.8624    2.3146   -4.5959 N.pl3     1 GTP        -0.9014
     31 N3          0.7851    2.2875   -2.2493 N.2       1 GTP        -0.6718
     32 C4          0.2042    2.8436   -1.1486 C.ar      1 GTP         0.3897
     33 HOG2       -1.9502   -1.6324   -1.1989 H         1 GTP         0.5007
     34 HOG3       -4.5149   -1.7474   -4.0354 H         1 GTP         0.5007
     35 HOB2        1.4405   -5.1334   -3.6602 H         1 GTP         0.5193
     36 HOA2        3.6874   -0.3651   -4.9013 H         1 GTP         0.4890
     37 H5'         2.5578    0.5242   -2.5963 H         1 GTP         0.0511
     38 H5''        1.1971   -0.4363   -1.9604 H         1 GTP         0.0511
     39 H4'         3.8049   -0.1388   -0.4009 H         1 GTP         0.1554
     40 H3'         1.6783   -1.7629    0.2715 H         1 GTP         0.0796
     41 HO3'        2.2232   -1.2979    2.3953 H         1 GTP         0.4259
     42 H2'        -0.0011    0.0027    0.0003 H         1 GTP         0.0621
     43 HO2'       -0.6141    0.5574    2.1082 H         1 GTP         0.4287
     44 H1'         1.7826    1.9024    1.6451 H         1 GTP         0.1525
     45 H8         -0.3766    3.3075    1.9750 H         1 GTP         0.2675
     46 HN1        -0.8580    4.1049   -4.4138 H         1 GTP         0.3601
     47 HN21        1.5490    1.5963   -4.5827 H         1 GTP         0.4770
     48 HN22        0.5109    2.7205   -5.4321 H         1 GTP         0.4770
     49 H49        -1.7420    4.8034    0.4575 H         1 GTP         0.5213
@<TRIPOS>BOND
     1    1    2 2
     2    1    3 1
     3    1    4 1
     4    1    5 1
     5    3   33 1
     6    4   34 1
     7    5    6 1
     8    6    7 2
     9    6    8 1
    10    6    9 1
    11    8   35 1
    12    9   10 1
    13   10   11 2
    14   10   12 1
    15   10   13 1
    16   12   36 1
    17   13   14 1
    18   14   15 1
    19   14   37 1
    20   14   38 1
    21   15   16 1
    22   15   17 1
    23   15   39 1
    24   16   21 1
    25   17   18 1
    26   17   19 1
    27   17   40 1
    28   18   41 1
    29   19   20 1
    30   19   21 1
    31   19   42 1
    32   20   43 1
    33   21   22 1
    34   21   44 1
    35   22   23 ar
    36   22   32 ar
    37   23   24 ar
    38   23   45 1
    39   24   25 ar
    40   24   49 1
    41   25   26 ar
    42   25   32 ar
    43   26   27 2
    44   26   28 ar
    45   28   29 ar
    46   28   46 1
    47   29   30 1
    48   29   31 ar
    49   30   47 1
    50   30   48 1
    51   31   32 ar
@<TRIPOS>SUBSTRUCTURE
     1 GTP         1 GROUP 0 A     ****
@<TRIPOS>MOLECULE
[[5-(2-amino-6-oxo-7,8-dihydro-1~{H}-purin-8-ylium-9-yl)-3,4-dihydroxy-tetrahydrofuran-2-yl]methoxy-hydroxy-phosphoryl] phosphono hydrogen phosphate
   49    51     1     0     0
SMALL
USER_CHARGES

@<TRIPOS>ATOM
      1 PG          3.8534   -4.1883   -3.5857 P.3       1 GTP         1.7996
      2 O1G         2.8870   -5.3158   -3.8005 O.2       1 GTP        -0.8112
      3 O2G         4.3641   -3.9964   -2.0645 O.3       1 GTP        -0.7934
      4 O3G         5.2256   -4.2890   -4.4338 O.3       1 GTP        -0.7934
      5 O3B         3.2845   -2.7286   -3.9821 O.3       1 GTP        -0.8067
      6 PB          2.7414   -2.1273   -5.3799 P.3       1 GTP         1.9429
      7 O1B         3.7426   -2.1425   -6.4972 O.2       1 GTP        -0.8303
      8 O2B         1.3843   -2.9601   -5.6588 O.3       1 GTP        -0.7951
      9 O3A         2.1656   -0.6739   -4.9762 O.3       1 GTP        -0.7994
     10 PA          2.8837    0.6137   -4.3156 P.3       1 GTP         1.7871
     11 O1A         4.0175    1.1693   -5.1275 O.2       1 GTP        -0.8044
     12 O2A         1.6579    1.6445   -4.0876 O.3       1 GTP        -0.8076
     13 O5'         3.2876    0.1332   -2.8242 O.3       1 GTP        -0.5620
     14 C5'         2.2816   -0.2918   -1.9206 C.3       1 GTP         0.1570
     15 C4'         2.7248    0.0226   -0.4980 C.3       1 GTP         0.1395
     16 O4'         2.4697    1.4219   -0.2462 O.3       1 GTP        -0.3978
     17 C3'         1.9404   -0.7419    0.5596 C.3       1 GTP         0.0953
     18 O3'         2.7418   -0.8086    1.7389 O.3       1 GTP        -0.5639
     19 C2'         0.7477    0.1630    0.7858 C.3       1 GTP         0.0640
     20 O2'         0.1373   -0.0577    2.0407 O.3       1 GTP        -0.5724
     21 C1'         1.3733    1.5427    0.6747 C.3       1 GTP         0.4182
     22 N9          0.4520    2.5240    0.1767 N.pl3     1 GTP        -0.4563
     23 C8         -0.2009    2.4849   -0.9792 C.ar      1 GTP         0.2386
     24 N7         -0.9840    3.5454   -1.1481 N.pl3     1 GTP        -0.4432
     25 C5         -0.8090    4.3005   -0.0206 C.ar      1 GTP        -0.2050
     26 C6         -1.4206    5.5724    0.3362 C.ar      1 GTP         0.7599
     27 O6         -2.2199    6.1544   -0.3836 O.2       1 GTP        -0.5606
     28 N1         -0.9680    6.0043    1.5817 N.pl3     1 GTP        -0.5020
     29 C2         -0.0474    5.3055    2.3814 C.ar      1 GTP         0.7674
     30 N2          0.2680    5.9024    3.5740 N.pl3     1 GTP        -0.9014
     31 N3          0.4755    4.1601    2.0138 N.2       1 GTP        -0.6718
     32 C4          0.0611    3.6981    0.8001 C.ar      1 GTP         0.3897
     33 HOG2        3.7052   -3.8113   -1.3619 H         1 GTP         0.5007
     34 HOG3        5.1780   -4.3100   -5.4133 H         1 GTP         0.5007
     35 HOB2        0.8187   -2.7053   -6.4185 H         1 GTP         0.5193
     36 HOA2        1.8312    2.4926   -3.6265 H         1 GTP         0.4890
     37 H5'         1.3495    0.2323   -2.1554 H         1 GTP         0.0511
     38 H5''        2.1262   -1.3685   -2.0437 H         1 GTP         0.0511
     39 H4'         3.8049   -0.1388   -0.4009 H         1 GTP         0.1554
     40 H3'         1.6783   -1.7629    0.2715 H         1 GTP         0.0796
     41 HO3'        2.2232   -1.2979    2.3953 H         1 GTP         0.4259
     42 H2'        -0.0011    0.0027    0.0003 H         1 GTP         0.0621
     43 HO2'       -0.6141    0.5574    2.1082 H         1 GTP         0.4287
     44 H1'         1.7826    1.9024    1.6451 H         1 GTP         0.1525
     45 H8         -0.1126    1.6906   -1.6997 H         1 GTP         0.2675
     46 HN1        -1.3285    6.8855    1.9361 H         1 GTP         0.3601
     47 HN21        0.9153    5.4446    4.1732 H         1 GTP         0.4770
     48 HN22       -0.1624    6.7706    3.7948 H         1 GTP         0.4770
     49 H49        -1.5768    3.7405   -1.9429 H         1 GTP         0.5213
@<TRIPOS>BOND
     1    1    2 2
     2    1    3 1
     3    1    4 1
     4    1    5 1
     5    3   33 1
     6    4   34 1
     7    5    6 1
     8    6    7 2
     9    6    8 1
    10    6    9 1
    11    8   35 1
    12    9   10 1
    13   10   11 2
    14   10   12 1
    15   10   13 1
    16   12   36 1
    17   13   14 1
    18   14   15 1
    19   14   37 1
    20   14   38 1
    21   15   16 1
    22   15   17 1
    23   15   39 1
    24   16   21 1
    25   17   18 1
    26   17   19 1
    27   17   40 1
    28   18   41 1
    29   19   20 1
    30   19   21 1
    31   19   42 1
    32   20   43 1
    33   21   22 1
    34   21   44 1
    35   22   23 ar
    36   22   32 ar
    37   23   24 ar
    38   23   45 1
    39   24   25 ar
    40   24   49 1
    41   25   26 ar
    42   25   32 ar
    43   26   27 2
    44   26   28 ar
    45   28   29 ar
    46   28   46 1
    47   29   30 1
    48   29   31 ar
    49   30   47 1
    50   30   48 1
    51   31   32 ar
@<TRIPOS>SUBSTRUCTURE
     1 GTP         1 GROUP 0 A     ****
@<TRIPOS>MOLECULE
[[5-(2-amino-6-oxo-7,8-dihydro-1~{H}-purin-8-ylium-9-yl)-3,4-dihydroxy-tetrahydrofuran-2-yl]methoxy-hydroxy-phosphoryl] phosphono hydrogen phosphate
   49    51     1     0     0
SMALL
USER_CHARGES

@<TRIPOS>ATOM
      1 PG          0.9770   -3.4788   -6.0525 P.3       1 GTP         1.7996
      2 O1G         2.1267   -3.6295   -5.1004 O.2       1 GTP        -0.8112
      3 O2G         1.3727   -3.4810   -7.6194 O.3       1 GTP        -0.7934
      4 O3G        -0.1560   -4.6269   -5.9485 O.3       1 GTP        -0.7934
      5 O3B         0.1311   -2.1131   -5.8765 O.3       1 GTP        -0.8067
      6 PB          0.5580   -0.5591   -5.9914 P.3       1 GTP         1.9429
      7 O1B         1.1021   -0.1584   -7.3310 O.2       1 GTP        -0.8303
      8 O2B        -0.7632    0.2419   -5.5163 O.3       1 GTP        -0.7951
      9 O3A         1.5520   -0.3390   -4.7383 O.3       1 GTP        -0.7994
     10 PA          2.3560    0.9665   -4.2292 P.3       1 GTP         1.7871
     11 O1A         3.3240    1.5225   -5.2328 O.2       1 GTP        -0.8044
     12 O2A         1.1743    1.9867   -3.8051 O.3       1 GTP        -0.8076
     13 O5'         3.0192    0.5132   -2.8246 O.3       1 GTP        -0.5620
     14 C5'         2.2816   -0.2918   -1.9206 C.3       1 GTP         0.1570
     15 C4'         2.7248    0.0226   -0.4980 C.3       1 GTP         0.1395
     16 O4'         2.4697    1.4219   -0.2462 O.3       1 GTP        -0.3978
     17 C3'         1.9404   -0.7419    0.5596 C.3       1 GTP         0.0953
     18 O3'         2.7418   -0.8086    1.7389 O.3       1 GTP        -0.5639
     19 C2'         0.7477    0.1630    0.7858 C.3       1 GTP         0.0640
     20 O2'         0.1373   -0.0577    2.0407 O.3       1 GTP        -0.5724
     21 C1'         1.3733    1.5427    0.6747 C.3       1 GTP         0.4182
     22 N9          0.4520    2.5240    0.1767 N.pl3     1 GTP        -0.4563
     23 C8         -0.2009    2.4849   -0.9792 C.ar      1 GTP         0.2386
     24 N7         -0.9840    3.5454   -1.1481 N.pl3     1 GTP        -0.4432
     25 C5         -0.8090    4.3005   -0.0206 C.ar      1 GTP        -0.2050
     26 C6         -1.4206    5.5724    0.3362 C.ar      1 GTP         0.7599
     27 O6         -2.2199    6.1544   -0.3836 O.2       1 GTP        -0.5606
     28 N1         -0.9680    6.0043    1.5817 N.pl3     1 GTP        -0.5020
     29 C2         -0.0474    5.3055    2.3814 C.ar      1 GTP         0.7674
     30 N2          0.2680    5.9024    3.5740 N.pl3     1 GTP        -0.9014
     31 N3          0.4755    4.1601    2.0138 N.2       1 GTP        -0.6718
     32 C4          0.0611    3.6981    0.8001 C.ar      1 GTP         0.3897
     33 HOG2        1.9832   -2.7911   -7.9562 H         1 GTP         0.5007
     34 HOG3        0.0981   -5.5606   -6.1088 H         1 GTP         0.5007
     35 HOB2       -0.7164    1.2163   -5.4139 H         1 GTP         0.5193
     36 HOA2        1.4133    2.8436   -3.3920 H         1 GTP         0.4890
     37 H5'         1.2150   -0.0785   -2.0448 H         1 GTP         0.0511
     38 H5''        2.4641   -1.3458   -2.1540 H         1 GTP         0.0511
     39 H4'         3.8049   -0.1388   -0.4009 H         1 GTP         0.1554
     40 H3'         1.6783   -1.7629    0.2715 H         1 GTP         0.0796
     41 HO3'        2.2232   -1.2979    2.3953 H         1 GTP         0.4259
     42 H2'        -0.0011    0.0027    0.0003 H         1 GTP         0.0621
     43 HO2'       -0.6141    0.5574    2.1082 H         1 GTP         0.4287
     44 H1'         1.7826    1.9024    1.6451 H         1 GTP         0.1525
     45 H8         -0.1126    1.6906   -1.6997 H         1 GTP         0.2675
     46 HN1        -1.3285    6.8855    1.9361 H         1 GTP         0.3601
     47 HN21        0.9153    5.4446    4.1732 H         1 GTP         0.4770
     48 HN22       -0.1624    6.7706    3.7948 H         1 GTP         0.4770
     49 H49        -1.5768    3.7405   -1.9429 H         1 GTP         0.5213
@<TRIPOS>BOND
     1    1    2 2
     2    1    3 1
     3    1    4 1
     4    1    5 1
     5    3   33 1
     6    4   34 1
     7    5    6 1
     8    6    7 2
     9    6    8 1
    10    6    9 1
    11    8   35 1
    12    9   10 1
    13   10   11 2
    14   10   12 1
    15   10   13 1
    16   12   36 1
    17   13   14 1
    18   14   15 1
    19   14   37 1
    20   14   38 1
    21   15   16 1
    22   15   17 1
    23   15   39 1
    24   16   21 1
    25   17   18 1
    26   17   19 1
    27   17   40 1
    28   18   41 1
    29   19   20 1
    30   19   21 1
    31   19   42 1
    32   20   43 1
    33   21   22 1
    34   21   44 1
    35   22   23 ar
    36   22   32 ar
    37   23   24 ar
    38   23   45 1
    39   24   25 ar
    40   24   49 1
    41   25   26 ar
    42   25   32 ar
    43   26   27 2
    44   26   28 ar
    45   28   29 ar
    46   28   46 1
    47   29   30 1
    48   29   31 ar
    49   30   47 1
    50   30   48 1
    51   31   32 ar
@<TRIPOS>SUBSTRUCTURE
     1 GTP         1 GROUP 0 A     ****
@<TRIPOS>MOLECULE
[[5-(2-amino-6-oxo-7,8-dihydro-1~{H}-purin-8-ylium-9-yl)-3,4-dihydroxy-tetrahydrofuran-2-yl]methoxy-hydroxy-phosphoryl] phosphono hydrogen phosphate
   49    51     1     0     0
SMALL
USER_CHARGES

@<TRIPOS>ATOM
      1 PG          0.8978   -3.6423   -5.5016 P.3       1 GTP         1.7996
      2 O1G        -0.1723   -2.9460   -4.7135 O.2       1 GTP        -0.8112
      3 O2G         1.8183   -4.6696   -4.6596 O.3       1 GTP        -0.7934
      4 O3G         0.3672   -4.5383   -6.7379 O.3       1 GTP        -0.7934
      5 O3B         1.9708   -2.6555   -6.1992 O.3       1 GTP        -0.8067
      6 PB          2.9948   -1.5687   -5.5823 P.3       1 GTP         1.9429
      7 O1B         3.9995   -2.1326   -4.6212 O.2       1 GTP        -0.8303
      8 O2B         3.6187   -0.8414   -6.8842 O.3       1 GTP        -0.7951
      9 O3A         2.0268   -0.4208   -4.9889 O.3       1 GTP        -0.7994
     10 PA          2.3560    0.9665   -4.2292 P.3       1 GTP         1.7871
     11 O1A         3.1811    1.9277   -5.0346 O.2       1 GTP        -0.8044
     12 O2A         0.8921    1.5216   -3.8219 O.3       1 GTP        -0.8076
     13 O5'         3.0192    0.5132   -2.8246 O.3       1 GTP        -0.5620
     14 C5'         2.2816   -0.2918   -1.9206 C.3       1 GTP         0.1570
     15 C4'         2.7248    0.0226   -0.4980 C.3       1 GTP         0.1395
     16 O4'         2.4697    1.4219   -0.2462 O.3       1 GTP        -0.3978
     17 C3'         1.9404   -0.7419    0.5596 C.3       1 GTP         0.0953
     18 O3'         2.7418   -0.8086    1.7389 O.3       1 GTP        -0.5639
     19 C2'         0.7477    0.1630    0.7858 C.3       1 GTP         0.0640
     20 O2'         0.1373   -0.0577    2.0407 O.3       1 GTP        -0.5724
     21 C1'         1.3733    1.5427    0.6747 C.3       1 GTP         0.4182
     22 N9          0.4520    2.5240    0.1767 N.pl3     1 GTP        -0.4563
     23 C8          0.5671    3.2221   -0.9473 C.ar      1 GTP         0.2386
     24 N7         -0.4560    4.0508   -1.1290 N.pl3     1 GTP        -0.4432
     25 C5         -1.2671    3.8585   -0.0441 C.ar      1 GTP        -0.2050
     26 C6         -2.5318    4.5014    0.2817 C.ar      1 GTP         0.7599
     27 O6         -3.0527    5.3493   -0.4293 O.2       1 GTP        -0.5606
     28 N1         -3.0357    4.0149    1.4868 N.pl3     1 GTP        -0.5020
     29 C2         -2.4069    3.0373    2.2768 C.ar      1 GTP         0.7674
     30 N2         -3.0679    2.6964    3.4278 N.pl3     1 GTP        -0.9014
     31 N3         -1.2653    2.4872    1.9379 N.2       1 GTP        -0.6718
     32 C4         -0.7342    2.9334    0.7643 C.ar      1 GTP         0.3897
     33 HOG2        2.3392   -4.3290   -3.9016 H         1 GTP         0.5007
     34 HOG3       -0.2452   -5.2827   -6.5563 H         1 GTP         0.5007
     35 HOB2        4.2097   -0.0687   -6.7586 H         1 GTP         0.5193
     36 HOA2        0.2642    1.7695   -4.5334 H         1 GTP         0.4890
     37 H5'         1.2150   -0.0785   -2.0448 H         1 GTP         0.0511
     38 H5''        2.4641   -1.3458   -2.1540 H         1 GTP         0.0511
     39 H4'         3.8049   -0.1388   -0.4009 H         1 GTP         0.1554
     40 H3'         1.6783   -1.7629    0.2715 H         1 GTP         0.0796
     41 HO3'        2.2232   -1.2979    2.3953 H         1 GTP         0.4259
     42 H2'        -0.0011    0.0027    0.0003 H         1 GTP         0.0621
     43 HO2'       -0.1563   -0.9855    2.0596 H         1 GTP         0.4287
     44 H1'         1.7826    1.9024    1.6451 H         1 GTP         0.1525
     45 H8          1.3888    3.1325   -1.6361 H         1 GTP         0.2675
     46 HN1        -3.9188    4.3932    1.8170 H         1 GTP         0.3601
     47 HN21       -2.6609    2.0087    4.0186 H         1 GTP         0.4770
     48 HN22       -3.9293    3.1496    3.6283 H         1 GTP         0.4770
     49 H49        -0.5938    4.6820   -1.9060 H         1 GTP         0.5213
@<TRIPOS>BOND
     1    1    2 2
     2    1    3 1
     3    1    4 1
     4    1    5 1
     5    3   33 1
     6    4   34 1
     7    5    6 1
     8    6    7 2
     9    6    8 1
    10    6    9 1
    11    8   35 1
    12    9   10 1
    13   10   11 2
    14   10   12 1
    15   10   13 1
    16   12   36 1
    17   13   14 1
    18   14   15 1
    19   14   37 1
    20   14   38 1
    21   15   16 1
    22   15   17 1
    23   15   39 1
    24   16   21 1
    25   17   18 1
    26   17   19 1
    27   17   40 1
    28   18   41 1
    29   19   20 1
    30   19   21 1
    31   19   42 1
    32   20   43 1
    33   21   22 1
    34   21   44 1
    35   22   23 ar
    36   22   32 ar
    37   23   24 ar
    38   23   45 1
    39   24   25 ar
    40   24   49 1
    41   25   26 ar
    42   25   32 ar
    43   26   27 2
    44   26   28 ar
    45   28   29 ar
    46   28   46 1
    47   29   30 1
    48   29   31 ar
    49   30   47 1
    50   30   48 1
    51   31   32 ar
@<TRIPOS>SUBSTRUCTURE
     1 GTP         1 GROUP 0 A     ****
@<TRIPOS>MOLECULE
[[5-(2-amino-6-oxo-7,8-dihydro-1~{H}-purin-8-ylium-9-yl)-3,4-dihydroxy-tetrahydrofuran-2-yl]methoxy-hydroxy-phosphoryl] phosphono hydrogen phosphate
   49    51     1     0     0
SMALL
USER_CHARGES

@<TRIPOS>ATOM
      1 PG         -2.7693   -3.8644   -3.3418 P.3       1 GTP         1.7996
      2 O1G        -3.1981   -3.9334   -1.9057 O.2       1 GTP        -0.8112
      3 O2G        -2.5582   -5.2920   -4.0693 O.3       1 GTP        -0.7934
      4 O3G        -3.7885   -3.0870   -4.3264 O.3       1 GTP        -0.7934
      5 O3B        -1.3668   -3.1008   -3.5903 O.3       1 GTP        -0.8067
      6 PB          0.1291   -3.3944   -3.0552 P.3       1 GTP         1.9429
      7 O1B         0.2742   -3.3699   -1.5621 O.2       1 GTP        -0.8303
      8 O2B         0.5269   -4.7919   -3.7637 O.3       1 GTP        -0.7951
      9 O3A         1.0421   -2.3368   -3.8642 O.3       1 GTP        -0.7994
     10 PA          2.6333   -2.0590   -3.8369 P.3       1 GTP         1.7871
     11 O1A         3.4709   -3.2427   -4.2251 O.2       1 GTP        -0.8044
     12 O2A         2.8015   -0.7752   -4.8069 O.3       1 GTP        -0.8076
     13 O5'         2.9196   -1.4816   -2.3527 O.3       1 GTP        -0.5620
     14 C5'         2.2816   -0.2918   -1.9206 C.3       1 GTP         0.1570
     15 C4'         2.7248    0.0226   -0.4980 C.3       1 GTP         0.1395
     16 O4'         2.4697    1.4219   -0.2462 O.3       1 GTP        -0.3978
     17 C3'         1.9404   -0.7419    0.5596 C.3       1 GTP         0.0953
     18 O3'         2.7418   -0.8086    1.7389 O.3       1 GTP        -0.5639
     19 C2'         0.7477    0.1630    0.7858 C.3       1 GTP         0.0640
     20 O2'         0.1373   -0.0577    2.0407 O.3       1 GTP        -0.5724
     21 C1'         1.3733    1.5427    0.6747 C.3       1 GTP         0.4182
     22 N9          0.4520    2.5240    0.1767 N.pl3     1 GTP        -0.4563
     23 C8         -0.2009    2.4849   -0.9792 C.ar      1 GTP         0.2386
     24 N7         -0.9840    3.5454   -1.1481 N.pl3     1 GTP        -0.4432
     25 C5         -0.8090    4.3005   -0.0206 C.ar      1 GTP        -0.2050
     26 C6         -1.4206    5.5724    0.3362 C.ar      1 GTP         0.7599
     27 O6         -2.2199    6.1544   -0.3836 O.2       1 GTP        -0.5606
     28 N1         -0.9680    6.0043    1.5817 N.pl3     1 GTP        -0.5020
     29 C2         -0.0474    5.3055    2.3814 C.ar      1 GTP         0.7674
     30 N2          0.2680    5.9024    3.5740 N.pl3     1 GTP        -0.9014
     31 N3          0.4755    4.1601    2.0138 N.2       1 GTP        -0.6718
     32 C4          0.0611    3.6981    0.8001 C.ar      1 GTP         0.3897
     33 HOG2       -1.8933   -5.9158   -3.7077 H         1 GTP         0.5007
     34 HOG3       -4.7055   -3.4221   -4.4213 H         1 GTP         0.5007
     35 HOB2        1.4405   -5.1334   -3.6602 H         1 GTP         0.5193
     36 HOA2        3.6874   -0.3651   -4.9013 H         1 GTP         0.4890
     37 H5'         2.5578    0.5242   -2.5963 H         1 GTP         0.0511
     38 H5''        1.1971   -0.4363   -1.9604 H         1 GTP         0.0511
     39 H4'         3.8049   -0.1388   -0.4009 H         1 GTP         0.1554
     40 H3'         1.6783   -1.7629    0.2715 H         1 GTP         0.0796
     41 HO3'        2.2232   -1.2979    2.3953 H         1 GTP         0.4259
     42 H2'        -0.0011    0.0027    0.0003 H         1 GTP         0.0621
     43 HO2'       -0.1563   -0.9855    2.0596 H         1 GTP         0.4287
     44 H1'         1.7826    1.9024    1.6451 H         1 GTP         0.1525
     45 H8         -0.1126    1.6906   -1.6997 H         1 GTP         0.2675
     46 HN1        -1.3285    6.8855    1.9361 H         1 GTP         0.3601
     47 HN21        0.9153    5.4446    4.1732 H         1 GTP         0.4770
     48 HN22       -0.1624    6.7706    3.7948 H         1 GTP         0.4770
     49 H49        -1.5768    3.7405   -1.9429 H         1 GTP         0.5213
@<TRIPOS>BOND
     1    1    2 2
     2    1    3 1
     3    1    4 1
     4    1    5 1
     5    3   33 1
     6    4   34 1
     7    5    6 1
     8    6    7 2
     9    6    8 1
    10    6    9 1
    11    8   35 1
    12    9   10 1
    13   10   11 2
    14   10   12 1
    15   10   13 1
    16   12   36 1
    17   13   14 1
    18   14   15 1
    19   14   37 1
    20   14   38 1
    21   15   16 1
    22   15   17 1
    23   15   39 1
    24   16   21 1
    25   17   18 1
    26   17   19 1
    27   17   40 1
    28   18   41 1
    29   19   20 1
    30   19   21 1
    31   19   42 1
    32   20   43 1
    33   21   22 1
    34   21   44 1
    35   22   23 ar
    36   22   32 ar
    37   23   24 ar
    38   23   45 1
    39   24   25 ar
    40   24   49 1
    41   25   26 ar
    42   25   32 ar
    43   26   27 2
    44   26   28 ar
    45   28   29 ar
    46   28   46 1
    47   29   30 1
    48   29   31 ar
    49   30   47 1
    50   30   48 1
    51   31   32 ar
@<TRIPOS>SUBSTRUCTURE
     1 GTP         1 GROUP 0 A     ****
@<TRIPOS>MOLECULE
[[5-(2-amino-6-oxo-7,8-dihydro-1~{H}-purin-8-ylium-9-yl)-3,4-dihydroxy-tetrahydrofuran-2-yl]methoxy-hydroxy-phosphoryl] phosphono hydrogen phosphate
   49    51     1     0     0
SMALL
USER_CHARGES

@<TRIPOS>ATOM
      1 PG          3.5522   -5.7548   -4.8932 P.3       1 GTP         1.7996
      2 O1G         4.5998   -6.0172   -5.9347 O.2       1 GTP        -0.8112
      3 O2G         2.1458   -6.5179   -5.1202 O.3       1 GTP        -0.7934
      4 O3G         3.9646   -6.1659   -3.3854 O.3       1 GTP        -0.7934
      5 O3B         3.1229   -4.2039   -4.7451 O.3       1 GTP        -0.8067
      6 PB          3.9719   -2.8827   -4.3653 P.3       1 GTP         1.9429
      7 O1B         4.6249   -2.9268   -3.0153 O.2       1 GTP        -0.8303
      8 O2B         4.9818   -2.6989   -5.6141 O.3       1 GTP        -0.7951
      9 O3A         2.9276   -1.6737   -4.5982 O.3       1 GTP        -0.7994
     10 PA          3.0852   -0.0762   -4.4159 P.3       1 GTP         1.7871
     11 O1A         4.1533    0.5381   -5.2733 O.2       1 GTP        -0.8044
     12 O2A         1.5937    0.4784   -4.7077 O.3       1 GTP        -0.8076
     13 O5'         3.2876    0.1332   -2.8242 O.3       1 GTP        -0.5620
     14 C5'         2.2816   -0.2918   -1.9206 C.3       1 GTP         0.1570
     15 C4'         2.7248    0.0226   -0.4980 C.3       1 GTP         0.1395
     16 O4'         2.4697    1.4219   -0.2462 O.3       1 GTP        -0.3978
     17 C3'         1.9404   -0.7419    0.5596 C.3       1 GTP         0.0953
     18 O3'         2.7418   -0.8086    1.7389 O.3       1 GTP        -0.5639
     19 C2'         0.7477    0.1630    0.7858 C.3       1 GTP         0.0640
     20 O2'         0.1373   -0.0577    2.0407 O.3       1 GTP        -0.5724
     21 C1'         1.3733    1.5427    0.6747 C.3       1 GTP         0.4182
     22 N9          0.4520    2.5240    0.1767 N.pl3     1 GTP        -0.4563
     23 C8          0.5671    3.2221   -0.9473 C.ar      1 GTP         0.2386
     24 N7         -0.4560    4.0508   -1.1290 N.pl3     1 GTP        -0.4432
     25 C5         -1.2671    3.8585   -0.0441 C.ar      1 GTP        -0.2050
     26 C6         -2.5318    4.5014    0.2817 C.ar      1 GTP         0.7599
     27 O6         -3.0527    5.3493   -0.4293 O.2       1 GTP        -0.5606
     28 N1         -3.0357    4.0149    1.4868 N.pl3     1 GTP        -0.5020
     29 C2         -2.4069    3.0373    2.2768 C.ar      1 GTP         0.7674
     30 N2         -3.0679    2.6964    3.4278 N.pl3     1 GTP        -0.9014
     31 N3         -1.2653    2.4872    1.9379 N.2       1 GTP        -0.6718
     32 C4         -0.7342    2.9334    0.7643 C.ar      1 GTP         0.3897
     33 HOG2        2.1363   -7.4982   -5.1488 H         1 GTP         0.5007
     34 HOG3        4.7471   -5.7405   -2.9744 H         1 GTP         0.5007
     35 HOB2        5.6768   -3.3742   -5.7659 H         1 GTP         0.5193
     36 HOA2        1.4122    1.4351   -4.5904 H         1 GTP         0.4890
     37 H5'         1.3495    0.2323   -2.1554 H         1 GTP         0.0511
     38 H5''        2.1262   -1.3685   -2.0437 H         1 GTP         0.0511
     39 H4'         3.8049   -0.1388   -0.4009 H         1 GTP         0.1554
     40 H3'         1.6783   -1.7629    0.2715 H         1 GTP         0.0796
     41 HO3'        2.2232   -1.2979    2.3953 H         1 GTP         0.4259
     42 H2'        -0.0011    0.0027    0.0003 H         1 GTP         0.0621
     43 HO2'       -0.1563   -0.9855    2.0596 H         1 GTP         0.4287
     44 H1'         1.7826    1.9024    1.6451 H         1 GTP         0.1525
     45 H8          1.3888    3.1325   -1.6361 H         1 GTP         0.2675
     46 HN1        -3.9188    4.3932    1.8170 H         1 GTP         0.3601
     47 HN21       -2.6609    2.0087    4.0186 H         1 GTP         0.4770
     48 HN22       -3.9293    3.1496    3.6283 H         1 GTP         0.4770
     49 H49        -0.5938    4.6820   -1.9060 H         1 GTP         0.5213
@<TRIPOS>BOND
     1    1    2 2
     2    1    3 1
     3    1    4 1
     4    1    5 1
     5    3   33 1
     6    4   34 1
     7    5    6 1
     8    6    7 2
     9    6    8 1
    10    6    9 1
    11    8   35 1
    12    9   10 1
    13   10   11 2
    14   10   12 1
    15   10   13 1
    16   12   36 1
    17   13   14 1
    18   14   15 1
    19   14   37 1
    20   14   38 1
    21   15   16 1
    22   15   17 1
    23   15   39 1
    24   16   21 1
    25   17   18 1
    26   17   19 1
    27   17   40 1
    28   18   41 1
    29   19   20 1
    30   19   21 1
    31   19   42 1
    32   20   43 1
    33   21   22 1
    34   21   44 1
    35   22   23 ar
    36   22   32 ar
    37   23   24 ar
    38   23   45 1
    39   24   25 ar
    40   24   49 1
    41   25   26 ar
    42   25   32 ar
    43   26   27 2
    44   26   28 ar
    45   28   29 ar
    46   28   46 1
    47   29   30 1
    48   29   31 ar
    49   30   47 1
    50   30   48 1
    51   31   32 ar
@<TRIPOS>SUBSTRUCTURE
     1 GTP         1 GROUP 0 A     ****
@<TRIPOS>MOLECULE
[[5-(2-amino-6-oxo-7,8-dihydro-1~{H}-purin-8-ylium-9-yl)-3,4-dihydroxy-tetrahydrofuran-2-yl]methoxy-hydroxy-phosphoryl] phosphono hydrogen phosphate
   49    51     1     0     0
SMALL
USER_CHARGES

@<TRIPOS>ATOM
      1 PG         -1.1464   -4.8558   -6.2928 P.3       1 GTP         1.7996
      2 O1G        -1.0707   -4.4879   -7.7454 O.2       1 GTP        -0.8112
      3 O2G        -2.6340   -4.8748   -5.6615 O.3       1 GTP        -0.7934
      4 O3G        -0.5616   -6.3166   -5.9229 O.3       1 GTP        -0.7934
      5 O3B        -0.3275   -3.8731   -5.3052 O.3       1 GTP        -0.8067
      6 PB         -0.4555   -2.2895   -5.0121 P.3       1 GTP         1.9429
      7 O1B        -0.2426   -1.4133   -6.2113 O.2       1 GTP        -0.8303
      8 O2B        -1.8987   -2.1429   -4.2987 O.3       1 GTP        -0.7951
      9 O3A         0.5552   -2.0432   -3.7774 O.3       1 GTP        -0.7994
     10 PA          2.1468   -2.2811   -3.6362 P.3       1 GTP         1.7871
     11 O1A         2.5767   -3.7041   -3.8445 O.2       1 GTP        -0.8044
     12 O2A         2.7731   -1.2324   -4.6970 O.3       1 GTP        -0.8076
     13 O5'         2.5234   -1.6624   -2.1893 O.3       1 GTP        -0.5620
     14 C5'         2.2816   -0.2918   -1.9206 C.3       1 GTP         0.1570
     15 C4'         2.7248    0.0226   -0.4980 C.3       1 GTP         0.1395
     16 O4'         2.4697    1.4219   -0.2462 O.3       1 GTP        -0.3978
     17 C3'         1.9404   -0.7419    0.5596 C.3       1 GTP         0.0953
     18 O3'         2.7418   -0.8086    1.7389 O.3       1 GTP        -0.5639
     19 C2'         0.7477    0.1630    0.7858 C.3       1 GTP         0.0640
     20 O2'         0.1373   -0.0577    2.0407 O.3       1 GTP        -0.5724
     21 C1'         1.3733    1.5427    0.6747 C.3       1 GTP         0.4182
     22 N9          0.4520    2.5240    0.1767 N.pl3     1 GTP        -0.4563
     23 C8         -0.2009    2.4849   -0.9792 C.ar      1 GTP         0.2386
     24 N7         -0.9840    3.5454   -1.1481 N.pl3     1 GTP        -0.4432
     25 C5         -0.8090    4.3005   -0.0206 C.ar      1 GTP        -0.2050
     26 C6         -1.4206    5.5724    0.3362 C.ar      1 GTP         0.7599
     27 O6         -2.2199    6.1544   -0.3836 O.2       1 GTP        -0.5606
     28 N1         -0.9680    6.0043    1.5817 N.pl3     1 GTP        -0.5020
     29 C2         -0.0474    5.3055    2.3814 C.ar      1 GTP         0.7674
     30 N2          0.2680    5.9024    3.5740 N.pl3     1 GTP        -0.9014
     31 N3          0.4755    4.1601    2.0138 N.2       1 GTP        -0.6718
     32 C4          0.0611    3.6981    0.8001 C.ar      1 GTP         0.3897
     33 HOG2       -3.3035   -5.4828   -6.0411 H         1 GTP         0.5007
     34 HOG3       -0.9653   -7.1086   -6.3374 H         1 GTP         0.5007
     35 HOB2       -2.7072   -2.3393   -4.8183 H         1 GTP         0.5193
     36 HOA2        3.7478   -1.1363   -4.7496 H         1 GTP         0.4890
     37 H5'         2.8429    0.3147   -2.6388 H         1 GTP         0.0511
     38 H5''        1.2125   -0.0898   -2.0417 H         1 GTP         0.0511
     39 H4'         3.8049   -0.1388   -0.4009 H         1 GTP         0.1554
     40 H3'         1.6783   -1.7629    0.2715 H         1 GTP         0.0796
     41 HO3'        2.2232   -1.2979    2.3953 H         1 GTP         0.4259
     42 H2'        -0.0011    0.0027    0.0003 H         1 GTP         0.0621
     43 HO2'       -0.1563   -0.9855    2.0596 H         1 GTP         0.4287
     44 H1'         1.7826    1.9024    1.6451 H         1 GTP         0.1525
     45 H8         -0.1126    1.6906   -1.6997 H         1 GTP         0.2675
     46 HN1        -1.3285    6.8855    1.9361 H         1 GTP         0.3601
     47 HN21        0.9153    5.4446    4.1732 H         1 GTP         0.4770
     48 HN22       -0.1624    6.7706    3.7948 H         1 GTP         0.4770
     49 H49        -1.5768    3.7405   -1.9429 H         1 GTP         0.5213
@<TRIPOS>BOND
     1    1    2 2
     2    1    3 1
     3    1    4 1
     4    1    5 1
     5    3   33 1
     6    4   34 1
     7    5    6 1
     8    6    7 2
     9    6    8 1
    10    6    9 1
    11    8   35 1
    12    9   10 1
    13   10   11 2
    14   10   12 1
    15   10   13 1
    16   12   36 1
    17   13   14 1
    18   14   15 1
    19   14   37 1
    20   14   38 1
    21   15   16 1
    22   15   17 1
    23   15   39 1
    24   16   21 1
    25   17   18 1
    26   17   19 1
    27   17   40 1
    28   18   41 1
    29   19   20 1
    30   19   21 1
    31   19   42 1
    32   20   43 1
    33   21   22 1
    34   21   44 1
    35   22   23 ar
    36   22   32 ar
    37   23   24 ar
    38   23   45 1
    39   24   25 ar
    40   24   49 1
    41   25   26 ar
    42   25   32 ar
    43   26   27 2
    44   26   28 ar
    45   28   29 ar
    46   28   46 1
    47   29   30 1
    48   29   31 ar
    49   30   47 1
    50   30   48 1
    51   31   32 ar
@<TRIPOS>SUBSTRUCTURE
     1 GTP         1 GROUP 0 A     ****
@<TRIPOS>MOLECULE
[[5-(2-amino-6-oxo-7,8-dihydro-1~{H}-purin-8-ylium-9-yl)-3,4-dihydroxy-tetrahydrofuran-2-yl]methoxy-hydroxy-phosphoryl] phosphono hydrogen phosphate
   49    51     1     0     0
SMALL
USER_CHARGES

@<TRIPOS>ATOM
      1 PG          1.1262   -5.1323    6.7757 P.3       1 GTP         1.7996
      2 O1G         2.2439   -4.2417    6.3190 O.2       1 GTP        -0.8112
      3 O2G         1.2107   -5.6124    8.3165 O.3       1 GTP        -0.7934
      4 O3G        -0.3532   -4.4913    6.6615 O.3       1 GTP        -0.7934
      5 O3B         0.9892   -6.5170    5.9537 O.3       1 GTP        -0.8067
      6 PB          0.7224   -6.8191    4.3892 P.3       1 GTP         1.9429
      7 O1B         1.7606   -6.2627    3.4599 O.2       1 GTP        -0.8303
      8 O2B         0.5339   -8.4235    4.3310 O.3       1 GTP        -0.7951
      9 O3A        -0.7856   -6.2955    4.1474 O.3       1 GTP        -0.7994
     10 PA         -1.7112   -6.2791    2.8235 P.3       1 GTP         1.7871
     11 O1A        -1.9745   -7.6371    2.2404 O.2       1 GTP        -0.8044
     12 O2A        -3.0386   -5.4926    3.3098 O.3       1 GTP        -0.8076
     13 O5'        -0.9730   -5.2422    1.8244 O.3       1 GTP        -0.5620
     14 C5'        -0.7840   -3.8935    2.2172 C.3       1 GTP         0.1570
     15 C4'        -0.0724   -3.1466    1.1027 C.3       1 GTP         0.1395
     16 O4'        -0.8674   -3.1929   -0.0945 O.3       1 GTP        -0.3978
     17 C3'         0.1338   -1.6715    1.4027 C.3       1 GTP         0.0953
     18 O3'         1.2893   -1.4445    2.1808 O.3       1 GTP        -0.5639
     19 C2'         0.2158   -1.0724    0.0128 C.3       1 GTP         0.0640
     20 O2'         1.5141   -1.2448   -0.5513 O.3       1 GTP        -0.5724
     21 C1'        -0.7897   -1.9176   -0.7583 C.3       1 GTP         0.4182
     22 N9         -2.1040   -1.3333   -0.7704 N.pl3     1 GTP        -0.4563
     23 C8         -3.0597   -1.5109    0.1345 C.ar      1 GTP         0.2386
     24 N7         -4.1618   -0.8291   -0.1607 N.pl3     1 GTP        -0.4432
     25 C5         -3.8764   -0.1805   -1.3310 C.ar      1 GTP        -0.2050
     26 C6         -4.7187    0.7111   -2.1152 C.ar      1 GTP         0.7599
     27 O6         -5.8617    1.0043   -1.7939 O.2       1 GTP        -0.5606
     28 N1         -4.0405    1.1608   -3.2468 N.pl3     1 GTP        -0.5020
     29 C2         -2.7239    0.8013   -3.5822 C.ar      1 GTP         0.7674
     30 N2         -2.2399    1.3534   -4.7394 N.pl3     1 GTP        -0.9014
     31 N3         -2.0053   -0.0071   -2.8402 N.2       1 GTP        -0.6718
     32 C4         -2.6290   -0.4727   -1.7210 C.ar      1 GTP         0.3897
     33 HOG2        1.2089   -4.9351    9.0260 H         1 GTP         0.5007
     34 HOG3       -0.5543   -3.6697    7.1582 H         1 GTP         0.5007
     35 HOB2        1.2995   -8.9994    4.5416 H         1 GTP         0.5193
     36 HOA2       -3.7377   -5.2907    2.6522 H         1 GTP         0.4890
     37 H5'        -1.7612   -3.4419    2.4168 H         1 GTP         0.0511
     38 H5''       -0.1868   -3.8715    3.1345 H         1 GTP         0.0511
     39 H4'         0.8886   -3.6448    0.8780 H         1 GTP         0.1554
     40 H3'        -0.7373   -1.2358    1.9870 H         1 GTP         0.0796
     41 HO3'        1.3408   -0.4870    2.3219 H         1 GTP         0.4259
     42 H2'        -0.0384   -0.0310    0.0096 H         1 GTP         0.0621
     43 HO2'        2.1463   -0.7958    0.0370 H         1 GTP         0.4287
     44 H1'        -0.4769   -2.1002   -1.8093 H         1 GTP         0.1525
     45 H8         -2.9610   -2.1316    1.0079 H         1 GTP         0.2675
     46 HN1        -4.5320    1.7923   -3.8726 H         1 GTP         0.3601
     47 HN21       -1.3128    1.1277   -5.0171 H         1 GTP         0.4770
     48 HN22       -2.8342    1.9586   -5.2572 H         1 GTP         0.4770
     49 H49        -5.0195   -0.8034    0.3729 H         1 GTP         0.5213
@<TRIPOS>BOND
     1    1    2 2
     2    1    3 1
     3    1    4 1
     4    1    5 1
     5    3   33 1
     6    4   34 1
     7    5    6 1
     8    6    7 2
     9    6    8 1
    10    6    9 1
    11    8   35 1
    12    9   10 1
    13   10   11 2
    14   10   12 1
    15   10   13 1
    16   12   36 1
    17   13   14 1
    18   14   15 1
    19   14   37 1
    20   14   38 1
    21   15   16 1
    22   15   17 1
    23   15   39 1
    24   16   21 1
    25   17   18 1
    26   17   19 1
    27   17   40 1
    28   18   41 1
    29   19   20 1
    30   19   21 1
    31   19   42 1
    32   20   43 1
    33   21   22 1
    34   21   44 1
    35   22   23 ar
    36   22   32 ar
    37   23   24 ar
    38   23   45 1
    39   24   25 ar
    40   24   49 1
    41   25   26 ar
    42   25   32 ar
    43   26   27 2
    44   26   28 ar
    45   28   29 ar
    46   28   46 1
    47   29   30 1
    48   29   31 ar
    49   30   47 1
    50   30   48 1
    51   31   32 ar
@<TRIPOS>SUBSTRUCTURE
     1 GTP         1 GROUP 0 A     ****
@<TRIPOS>MOLECULE
[[5-(2-amino-6-oxo-7,8-dihydro-1~{H}-purin-8-ylium-9-yl)-3,4-dihydroxy-tetrahydrofuran-2-yl]methoxy-hydroxy-phosphoryl] phosphono hydrogen phosphate
   49    51     1     0     0
SMALL
USER_CHARGES

@<TRIPOS>ATOM
      1 PG          4.8526   -3.3091   -4.0913 P.3       1 GTP         1.7996
      2 O1G         6.0737   -3.2468   -4.9607 O.2       1 GTP        -0.8112
      3 O2G         3.9286   -4.6200   -4.2905 O.3       1 GTP        -0.7934
      4 O3G         5.1401   -3.2892   -2.5008 O.3       1 GTP        -0.7934
      5 O3B         3.8195   -2.0826   -4.2915 O.3       1 GTP        -0.8067
      6 PB          2.9948   -1.5687   -5.5823 P.3       1 GTP         1.9429
      7 O1B         3.8483   -1.1613   -6.7470 O.2       1 GTP        -0.8303
      8 O2B         1.9515   -2.7675   -5.8780 O.3       1 GTP        -0.7951
      9 O3A         2.0268   -0.4208   -4.9889 O.3       1 GTP        -0.7994
     10 PA          2.3560    0.9665   -4.2292 P.3       1 GTP         1.7871
     11 O1A         3.1811    1.9277   -5.0346 O.2       1 GTP        -0.8044
     12 O2A         0.8921    1.5216   -3.8219 O.3       1 GTP        -0.8076
     13 O5'         3.0192    0.5132   -2.8246 O.3       1 GTP        -0.5620
     14 C5'         2.2816   -0.2918   -1.9206 C.3       1 GTP         0.1570
     15 C4'         2.7248    0.0226   -0.4980 C.3       1 GTP         0.1395
     16 O4'         2.4697    1.4219   -0.2462 O.3       1 GTP        -0.3978
     17 C3'         1.9404   -0.7419    0.5596 C.3       1 GTP         0.0953
     18 O3'         2.7418   -0.8086    1.7389 O.3       1 GTP        -0.5639
     19 C2'         0.7477    0.1630    0.7858 C.3       1 GTP         0.0640
     20 O2'         0.1373   -0.0577    2.0407 O.3       1 GTP        -0.5724
     21 C1'         1.3733    1.5427    0.6747 C.3       1 GTP         0.4182
     22 N9          0.4520    2.5240    0.1767 N.pl3     1 GTP        -0.4563
     23 C8          0.5671    3.2221   -0.9473 C.ar      1 GTP         0.2386
     24 N7         -0.4560    4.0508   -1.1290 N.pl3     1 GTP        -0.4432
     25 C5         -1.2671    3.8585   -0.0441 C.ar      1 GTP        -0.2050
     26 C6         -2.5318    4.5014    0.2817 C.ar      1 GTP         0.7599
     27 O6         -3.0527    5.3493   -0.4293 O.2       1 GTP        -0.5606
     28 N1         -3.0357    4.0149    1.4868 N.pl3     1 GTP        -0.5020
     29 C2         -2.4069    3.0373    2.2768 C.ar      1 GTP         0.7674
     30 N2         -3.0679    2.6964    3.4278 N.pl3     1 GTP        -0.9014
     31 N3         -1.2653    2.4872    1.9379 N.2       1 GTP        -0.6718
     32 C4         -0.7342    2.9334    0.7643 C.ar      1 GTP         0.3897
     33 HOG2        3.5366   -4.7954   -5.1723 H         1 GTP         0.5007
     34 HOG3        5.6069   -2.5190   -2.1123 H         1 GTP         0.5007
     35 HOB2        1.2704   -2.6434   -6.5729 H         1 GTP         0.5193
     36 HOA2        0.2642    1.7695   -4.5334 H         1 GTP         0.4890
     37 H5'         1.2150   -0.0785   -2.0448 H         1 GTP         0.0511
     38 H5''        2.4641   -1.3458   -2.1540 H         1 GTP         0.0511
     39 H4'         3.8049   -0.1388   -0.4009 H         1 GTP         0.1554
     40 H3'         1.6783   -1.7629    0.2715 H         1 GTP         0.0796
     41 HO3'        2.2232   -1.2979    2.3953 H         1 GTP         0.4259
     42 H2'        -0.0011    0.0027    0.0003 H         1 GTP         0.0621
     43 HO2'       -0.1563   -0.9855    2.0596 H         1 GTP         0.4287
     44 H1'         1.7826    1.9024    1.6451 H         1 GTP         0.1525
     45 H8          1.3888    3.1325   -1.6361 H         1 GTP         0.2675
     46 HN1        -3.9188    4.3932    1.8170 H         1 GTP         0.3601
     47 HN21       -2.6609    2.0087    4.0186 H         1 GTP         0.4770
     48 HN22       -3.9293    3.1496    3.6283 H         1 GTP         0.4770
     49 H49        -0.5938    4.6820   -1.9060 H         1 GTP         0.5213
@<TRIPOS>BOND
     1    1    2 2
     2    1    3 1
     3    1    4 1
     4    1    5 1
     5    3   33 1
     6    4   34 1
     7    5    6 1
     8    6    7 2
     9    6    8 1
    10    6    9 1
    11    8   35 1
    12    9   10 1
    13   10   11 2
    14   10   12 1
    15   10   13 1
    16   12   36 1
    17   13   14 1
    18   14   15 1
    19   14   37 1
    20   14   38 1
    21   15   16 1
    22   15   17 1
    23   15   39 1
    24   16   21 1
    25   17   18 1
    26   17   19 1
    27   17   40 1
    28   18   41 1
    29   19   20 1
    30   19   21 1
    31   19   42 1
    32   20   43 1
    33   21   22 1
    34   21   44 1
    35   22   23 ar
    36   22   32 ar
    37   23   24 ar
    38   23   45 1
    39   24   25 ar
    40   24   49 1
    41   25   26 ar
    42   25   32 ar
    43   26   27 2
    44   26   28 ar
    45   28   29 ar
    46   28   46 1
    47   29   30 1
    48   29   31 ar
    49   30   47 1
    50   30   48 1
    51   31   32 ar
@<TRIPOS>SUBSTRUCTURE
     1 GTP         1 GROUP 0 A     ****
@<TRIPOS>MOLECULE
[[5-(2-amino-6-oxo-7,8-dihydro-1~{H}-purin-8-ylium-9-yl)-3,4-dihydroxy-tetrahydrofuran-2-yl]methoxy-hydroxy-phosphoryl] phosphono hydrogen phosphate
   49    51     1     0     0
SMALL
USER_CHARGES

@<TRIPOS>ATOM
      1 PG          2.0923   -4.9730   -4.5629 P.3       1 GTP         1.7996
      2 O1G         3.0777   -5.6328   -5.4820 O.2       1 GTP        -0.8112
      3 O2G         0.9126   -5.9305   -4.0124 O.3       1 GTP        -0.7934
      4 O3G         2.7252   -4.3425   -3.2158 O.3       1 GTP        -0.7934
      5 O3B         1.2966   -3.7251   -5.2120 O.3       1 GTP        -0.8067
      6 PB          1.8105   -2.3227   -5.8280 P.3       1 GTP         1.9429
      7 O1B         2.7399   -2.4578   -6.9980 O.2       1 GTP        -0.8303
      8 O2B         0.4470   -1.5055   -6.1214 O.3       1 GTP        -0.7951
      9 O3A         2.4047   -1.5353   -4.5499 O.3       1 GTP        -0.7994
     10 PA          3.0852   -0.0762   -4.4159 P.3       1 GTP         1.7871
     11 O1A         4.3287    0.1001   -5.2380 O.2       1 GTP        -0.8044
     12 O2A         1.8801    0.9311   -4.8037 O.3       1 GTP        -0.8076
     13 O5'         3.2876    0.1332   -2.8242 O.3       1 GTP        -0.5620
     14 C5'         2.2816   -0.2918   -1.9206 C.3       1 GTP         0.1570
     15 C4'         2.7248    0.0226   -0.4980 C.3       1 GTP         0.1395
     16 O4'         2.4697    1.4219   -0.2462 O.3       1 GTP        -0.3978
     17 C3'         1.9404   -0.7419    0.5596 C.3       1 GTP         0.0953
     18 O3'         2.7418   -0.8086    1.7389 O.3       1 GTP        -0.5639
     19 C2'         0.7477    0.1630    0.7858 C.3       1 GTP         0.0640
     20 O2'         0.1373   -0.0577    2.0407 O.3       1 GTP        -0.5724
     21 C1'         1.3733    1.5427    0.6747 C.3       1 GTP         0.4182
     22 N9          0.4520    2.5240    0.1767 N.pl3     1 GTP        -0.4563
     23 C8         -0.2009    2.4849   -0.9792 C.ar      1 GTP         0.2386
     24 N7         -0.9840    3.5454   -1.1481 N.pl3     1 GTP        -0.4432
     25 C5         -0.8090    4.3005   -0.0206 C.ar      1 GTP        -0.2050
     26 C6         -1.4206    5.5724    0.3362 C.ar      1 GTP         0.7599
     27 O6         -2.2199    6.1544   -0.3836 O.2       1 GTP        -0.5606
     28 N1         -0.9680    6.0043    1.5817 N.pl3     1 GTP        -0.5020
     29 C2         -0.0474    5.3055    2.3814 C.ar      1 GTP         0.7674
     30 N2          0.2680    5.9024    3.5740 N.pl3     1 GTP        -0.9014
     31 N3          0.4755    4.1601    2.0138 N.2       1 GTP        -0.6718
     32 C4          0.0611    3.6981    0.8001 C.ar      1 GTP         0.3897
     33 HOG2        0.3078   -6.3573   -4.6560 H         1 GTP         0.5007
     34 HOG3        3.4060   -3.6408   -3.2944 H         1 GTP         0.5007
     35 HOB2        0.5073   -0.5729   -6.4194 H         1 GTP         0.5193
     36 HOA2        2.0279    1.8978   -4.7296 H         1 GTP         0.4890
     37 H5'         1.3495    0.2323   -2.1554 H         1 GTP         0.0511
     38 H5''        2.1262   -1.3685   -2.0437 H         1 GTP         0.0511
     39 H4'         3.8049   -0.1388   -0.4009 H         1 GTP         0.1554
     40 H3'         1.6783   -1.7629    0.2715 H         1 GTP         0.0796
     41 HO3'        2.2232   -1.2979    2.3953 H         1 GTP         0.4259
     42 H2'        -0.0011    0.0027    0.0003 H         1 GTP         0.0621
     43 HO2'       -0.1563   -0.9855    2.0596 H         1 GTP         0.4287
     44 H1'         1.7826    1.9024    1.6451 H         1 GTP         0.1525
     45 H8         -0.1126    1.6906   -1.6997 H         1 GTP         0.2675
     46 HN1        -1.3285    6.8855    1.9361 H         1 GTP         0.3601
     47 HN21        0.9153    5.4446    4.1732 H         1 GTP         0.4770
     48 HN22       -0.1624    6.7706    3.7948 H         1 GTP         0.4770
     49 H49        -1.5768    3.7405   -1.9429 H         1 GTP         0.5213
@<TRIPOS>BOND
     1    1    2 2
     2    1    3 1
     3    1    4 1
     4    1    5 1
     5    3   33 1
     6    4   34 1
     7    5    6 1
     8    6    7 2
     9    6    8 1
    10    6    9 1
    11    8   35 1
    12    9   10 1
    13   10   11 2
    14   10   12 1
    15   10   13 1
    16   12   36 1
    17   13   14 1
    18   14   15 1
    19   14   37 1
    20   14   38 1
    21   15   16 1
    22   15   17 1
    23   15   39 1
    24   16   21 1
    25   17   18 1
    26   17   19 1
    27   17   40 1
    28   18   41 1
    29   19   20 1
    30   19   21 1
    31   19   42 1
    32   20   43 1
    33   21   22 1
    34   21   44 1
    35   22   23 ar
    36   22   32 ar
    37   23   24 ar
    38   23   45 1
    39   24   25 ar
    40   24   49 1
    41   25   26 ar
    42   25   32 ar
    43   26   27 2
    44   26   28 ar
    45   28   29 ar
    46   28   46 1
    47   29   30 1
    48   29   31 ar
    49   30   47 1
    50   30   48 1
    51   31   32 ar
@<TRIPOS>SUBSTRUCTURE
     1 GTP         1 GROUP 0 A     ****
@<TRIPOS>MOLECULE
[[5-(2-amino-6-oxo-7,8-dihydro-1~{H}-purin-8-ylium-9-yl)-3,4-dihydroxy-tetrahydrofuran-2-yl]methoxy-hydroxy-phosphoryl] phosphono hydrogen phosphate
   49    51     1     0     0
SMALL
USER_CHARGES

@<TRIPOS>ATOM
      1 PG          1.2024   -0.3496   -8.8628 P.3       1 GTP         1.7996
      2 O1G         0.0301    0.4381   -9.3692 O.2       1 GTP        -0.8112
      3 O2G         1.1129   -1.9467   -9.0927 O.3       1 GTP        -0.7934
      4 O3G         2.6281    0.0455   -9.5139 O.3       1 GTP        -0.7934
      5 O3B         1.4736   -0.2092   -7.2758 O.3       1 GTP        -0.8067
      6 PB          0.5580   -0.5591   -5.9914 P.3       1 GTP         1.9429
      7 O1B        -0.7418    0.1875   -5.9291 O.2       1 GTP        -0.8303
      8 O2B         0.4265   -2.1696   -6.0365 O.3       1 GTP        -0.7951
      9 O3A         1.5520   -0.3390   -4.7383 O.3       1 GTP        -0.7994
     10 PA          2.3560    0.9665   -4.2292 P.3       1 GTP         1.7871
     11 O1A         3.3240    1.5225   -5.2328 O.2       1 GTP        -0.8044
     12 O2A         1.1743    1.9867   -3.8051 O.3       1 GTP        -0.8076
     13 O5'         3.0192    0.5132   -2.8246 O.3       1 GTP        -0.5620
     14 C5'         2.2816   -0.2918   -1.9206 C.3       1 GTP         0.1570
     15 C4'         2.7248    0.0226   -0.4980 C.3       1 GTP         0.1395
     16 O4'         2.4697    1.4219   -0.2462 O.3       1 GTP        -0.3978
     17 C3'         1.9404   -0.7419    0.5596 C.3       1 GTP         0.0953
     18 O3'         2.7418   -0.8086    1.7389 O.3       1 GTP        -0.5639
     19 C2'         0.7477    0.1630    0.7858 C.3       1 GTP         0.0640
     20 O2'         0.1373   -0.0577    2.0407 O.3       1 GTP        -0.5724
     21 C1'         1.3733    1.5427    0.6747 C.3       1 GTP         0.4182
     22 N9          0.4520    2.5240    0.1767 N.pl3     1 GTP        -0.4563
     23 C8         -0.2009    2.4849   -0.9792 C.ar      1 GTP         0.2386
     24 N7         -0.9840    3.5454   -1.1481 N.pl3     1 GTP        -0.4432
     25 C5         -0.8090    4.3005   -0.0206 C.ar      1 GTP        -0.2050
     26 C6         -1.4206    5.5724    0.3362 C.ar      1 GTP         0.7599
     27 O6         -2.2199    6.1544   -0.3836 O.2       1 GTP        -0.5606
     28 N1         -0.9680    6.0043    1.5817 N.pl3     1 GTP        -0.5020
     29 C2         -0.0474    5.3055    2.3814 C.ar      1 GTP         0.7674
     30 N2          0.2680    5.9024    3.5740 N.pl3     1 GTP        -0.9014
     31 N3          0.4755    4.1601    2.0138 N.2       1 GTP        -0.6718
     32 C4          0.0611    3.6981    0.8001 C.ar      1 GTP         0.3897
     33 HOG2        0.3689   -2.4436   -8.6907 H         1 GTP         0.5007
     34 HOG3        2.7483   -0.0433  -10.4833 H         1 GTP         0.5007
     35 HOB2       -0.0171   -2.6306   -5.2930 H         1 GTP         0.5193
     36 HOA2        1.4133    2.8436   -3.3920 H         1 GTP         0.4890
     37 H5'         1.2150   -0.0785   -2.0448 H         1 GTP         0.0511
     38 H5''        2.4641   -1.3458   -2.1540 H         1 GTP         0.0511
     39 H4'         3.8049   -0.1388   -0.4009 H         1 GTP         0.1554
     40 H3'         1.6783   -1.7629    0.2715 H         1 GTP         0.0796
     41 HO3'        2.2232   -1.2979    2.3953 H         1 GTP         0.4259
     42 H2'        -0.0011    0.0027    0.0003 H         1 GTP         0.0621
     43 HO2'       -0.6141    0.5574    2.1082 H         1 GTP         0.4287
     44 H1'         1.7826    1.9024    1.6451 H         1 GTP         0.1525
     45 H8         -0.1126    1.6906   -1.6997 H         1 GTP         0.2675
     46 HN1        -1.3285    6.8855    1.9361 H         1 GTP         0.3601
     47 HN21        0.9153    5.4446    4.1732 H         1 GTP         0.4770
     48 HN22       -0.1624    6.7706    3.7948 H         1 GTP         0.4770
     49 H49        -1.5768    3.7405   -1.9429 H         1 GTP         0.5213
@<TRIPOS>BOND
     1    1    2 2
     2    1    3 1
     3    1    4 1
     4    1    5 1
     5    3   33 1
     6    4   34 1
     7    5    6 1
     8    6    7 2
     9    6    8 1
    10    6    9 1
    11    8   35 1
    12    9   10 1
    13   10   11 2
    14   10   12 1
    15   10   13 1
    16   12   36 1
    17   13   14 1
    18   14   15 1
    19   14   37 1
    20   14   38 1
    21   15   16 1
    22   15   17 1
    23   15   39 1
    24   16   21 1
    25   17   18 1
    26   17   19 1
    27   17   40 1
    28   18   41 1
    29   19   20 1
    30   19   21 1
    31   19   42 1
    32   20   43 1
    33   21   22 1
    34   21   44 1
    35   22   23 ar
    36   22   32 ar
    37   23   24 ar
    38   23   45 1
    39   24   25 ar
    40   24   49 1
    41   25   26 ar
    42   25   32 ar
    43   26   27 2
    44   26   28 ar
    45   28   29 ar
    46   28   46 1
    47   29   30 1
    48   29   31 ar
    49   30   47 1
    50   30   48 1
    51   31   32 ar
@<TRIPOS>SUBSTRUCTURE
     1 GTP         1 GROUP 0 A     ****
@<TRIPOS>MOLECULE
[[5-(2-amino-6-oxo-7,8-dihydro-1~{H}-purin-8-ylium-9-yl)-3,4-dihydroxy-tetrahydrofuran-2-yl]methoxy-hydroxy-phosphoryl] phosphono hydrogen phosphate
   49    51     1     0     0
SMALL
USER_CHARGES

@<TRIPOS>ATOM
      1 PG         -2.5007   -0.4413   -3.6730 P.3       1 GTP         1.7996
      2 O1G        -1.5390    0.5349   -4.2841 O.2       1 GTP        -0.8112
      3 O2G        -2.8968   -0.1494   -2.1337 O.3       1 GTP        -0.7934
      4 O3G        -3.9320   -0.5517   -4.4158 O.3       1 GTP        -0.7934
      5 O3B        -1.9825   -1.9718   -3.6480 O.3       1 GTP        -0.8067
      6 PB         -0.6931   -2.6614   -2.9611 P.3       1 GTP         1.9429
      7 O1B        -0.6290   -2.5182   -1.4690 O.2       1 GTP        -0.8303
      8 O2B        -0.7304   -4.1826   -3.5067 O.3       1 GTP        -0.7951
      9 O3A         0.5552   -2.0432   -3.7774 O.3       1 GTP        -0.7994
     10 PA          2.1468   -2.2811   -3.6362 P.3       1 GTP         1.7871
     11 O1A         2.5767   -3.7041   -3.8445 O.2       1 GTP        -0.8044
     12 O2A         2.7731   -1.2324   -4.6970 O.3       1 GTP        -0.8076
     13 O5'         2.5234   -1.6624   -2.1893 O.3       1 GTP        -0.5620
     14 C5'         2.2816   -0.2918   -1.9206 C.3       1 GTP         0.1570
     15 C4'         2.7248    0.0226   -0.4980 C.3       1 GTP         0.1395
     16 O4'         2.4697    1.4219   -0.2462 O.3       1 GTP        -0.3978
     17 C3'         1.9404   -0.7419    0.5596 C.3       1 GTP         0.0953
     18 O3'         2.7418   -0.8086    1.7389 O.3       1 GTP        -0.5639
     19 C2'         0.7477    0.1630    0.7858 C.3       1 GTP         0.0640
     20 O2'         0.1373   -0.0577    2.0407 O.3       1 GTP        -0.5724
     21 C1'         1.3733    1.5427    0.6747 C.3       1 GTP         0.4182
     22 N9          0.4520    2.5240    0.1767 N.pl3     1 GTP        -0.4563
     23 C8         -0.8613    2.5511    0.3730 C.ar      1 GTP         0.2386
     24 N7         -1.4346    3.5939   -0.2188 N.pl3     1 GTP        -0.4432
     25 C5         -0.4099    4.2657   -0.8276 C.ar      1 GTP        -0.2050
     26 C6         -0.4554    5.4854   -1.6209 C.ar      1 GTP         0.7599
     27 O6         -1.4907    6.0944   -1.8508 O.2       1 GTP        -0.5606
     28 N1          0.8205    5.8357   -2.0593 N.pl3     1 GTP        -0.5020
     29 C2          1.9890    5.1091   -1.7730 C.ar      1 GTP         0.7674
     30 N2          3.1452    5.6230   -2.2997 N.pl3     1 GTP        -0.9014
     31 N3          1.9765    4.0139   -1.0514 N.2       1 GTP        -0.6718
     32 C4          0.7480    3.6324   -0.6003 C.ar      1 GTP         0.3897
     33 HOG2       -2.1889   -0.1381   -1.4549 H         1 GTP         0.5007
     34 HOG3       -4.4954    0.2485   -4.4826 H         1 GTP         0.5007
     35 HOB2        0.0168   -4.7815   -3.2945 H         1 GTP         0.5193
     36 HOA2        3.7478   -1.1363   -4.7496 H         1 GTP         0.4890
     37 H5'         2.8429    0.3147   -2.6388 H         1 GTP         0.0511
     38 H5''        1.2125   -0.0898   -2.0417 H         1 GTP         0.0511
     39 H4'         3.8049   -0.1388   -0.4009 H         1 GTP         0.1554
     40 H3'         1.6783   -1.7629    0.2715 H         1 GTP         0.0796
     41 HO3'        3.5554   -1.2733    1.4914 H         1 GTP         0.4259
     42 H2'        -0.0011    0.0027    0.0003 H         1 GTP         0.0621
     43 HO2'        0.8082    0.1199    2.7232 H         1 GTP         0.4287
     44 H1'         1.7826    1.9024    1.6451 H         1 GTP         0.1525
     45 H8         -1.4050    1.8187    0.9438 H         1 GTP         0.2675
     46 HN1         0.9121    6.6744   -2.6251 H         1 GTP         0.3601
     47 HN21        3.9971    5.1427   -2.1235 H         1 GTP         0.4770
     48 HN22        3.0881    6.4564   -2.8380 H         1 GTP         0.4770
     49 H49        -2.4173    3.8294   -0.2127 H         1 GTP         0.5213
@<TRIPOS>BOND
     1    1    2 2
     2    1    3 1
     3    1    4 1
     4    1    5 1
     5    3   33 1
     6    4   34 1
     7    5    6 1
     8    6    7 2
     9    6    8 1
    10    6    9 1
    11    8   35 1
    12    9   10 1
    13   10   11 2
    14   10   12 1
    15   10   13 1
    16   12   36 1
    17   13   14 1
    18   14   15 1
    19   14   37 1
    20   14   38 1
    21   15   16 1
    22   15   17 1
    23   15   39 1
    24   16   21 1
    25   17   18 1
    26   17   19 1
    27   17   40 1
    28   18   41 1
    29   19   20 1
    30   19   21 1
    31   19   42 1
    32   20   43 1
    33   21   22 1
    34   21   44 1
    35   22   23 ar
    36   22   32 ar
    37   23   24 ar
    38   23   45 1
    39   24   25 ar
    40   24   49 1
    41   25   26 ar
    42   25   32 ar
    43   26   27 2
    44   26   28 ar
    45   28   29 ar
    46   28   46 1
    47   29   30 1
    48   29   31 ar
    49   30   47 1
    50   30   48 1
    51   31   32 ar
@<TRIPOS>SUBSTRUCTURE
     1 GTP         1 GROUP 0 A     ****
@<TRIPOS>MOLECULE
[[5-(2-amino-6-oxo-7,8-dihydro-1~{H}-purin-8-ylium-9-yl)-3,4-dihydroxy-tetrahydrofuran-2-yl]methoxy-hydroxy-phosphoryl] phosphono hydrogen phosphate
   49    51     1     0     0
SMALL
USER_CHARGES

@<TRIPOS>ATOM
      1 PG          1.3051   -4.3265   -6.7230 P.3       1 GTP         1.7996
      2 O1G         1.7358   -5.5039   -5.8988 O.2       1 GTP        -0.8112
      3 O2G         2.1073   -4.1244   -8.1112 O.3       1 GTP        -0.7934
      4 O3G        -0.2447   -4.3395   -7.1819 O.3       1 GTP        -0.7934
      5 O3B         1.4562   -2.8964   -5.9856 O.3       1 GTP        -0.8067
      6 PB          2.7414   -2.1273   -5.3799 P.3       1 GTP         1.9429
      7 O1B         3.4563   -2.8691   -4.2892 O.2       1 GTP        -0.8303
      8 O2B         3.6365   -1.7838   -6.6814 O.3       1 GTP        -0.7951
      9 O3A         2.1656   -0.6739   -4.9762 O.3       1 GTP        -0.7994
     10 PA          2.8837    0.6137   -4.3156 P.3       1 GTP         1.7871
     11 O1A         4.0175    1.1693   -5.1275 O.2       1 GTP        -0.8044
     12 O2A         1.6579    1.6445   -4.0876 O.3       1 GTP        -0.8076
     13 O5'         3.2876    0.1332   -2.8242 O.3       1 GTP        -0.5620
     14 C5'         2.2816   -0.2918   -1.9206 C.3       1 GTP         0.1570
     15 C4'         2.7248    0.0226   -0.4980 C.3       1 GTP         0.1395
     16 O4'         2.4697    1.4219   -0.2462 O.3       1 GTP        -0.3978
     17 C3'         1.9404   -0.7419    0.5596 C.3       1 GTP         0.0953
     18 O3'         2.7418   -0.8086    1.7389 O.3       1 GTP        -0.5639
     19 C2'         0.7477    0.1630    0.7858 C.3       1 GTP         0.0640
     20 O2'         0.1373   -0.0577    2.0407 O.3       1 GTP        -0.5724
     21 C1'         1.3733    1.5427    0.6747 C.3       1 GTP         0.4182
     22 N9          0.4520    2.5240    0.1767 N.pl3     1 GTP        -0.4563
     23 C8         -0.2009    2.4849   -0.9792 C.ar      1 GTP         0.2386
     24 N7         -0.9840    3.5454   -1.1481 N.pl3     1 GTP        -0.4432
     25 C5         -0.8090    4.3005   -0.0206 C.ar      1 GTP        -0.2050
     26 C6         -1.4206    5.5724    0.3362 C.ar      1 GTP         0.7599
     27 O6         -2.2199    6.1544   -0.3836 O.2       1 GTP        -0.5606
     28 N1         -0.9680    6.0043    1.5817 N.pl3     1 GTP        -0.5020
     29 C2         -0.0474    5.3055    2.3814 C.ar      1 GTP         0.7674
     30 N2          0.2680    5.9024    3.5740 N.pl3     1 GTP        -0.9014
     31 N3          0.4755    4.1601    2.0138 N.2       1 GTP        -0.6718
     32 C4          0.0611    3.6981    0.8001 C.ar      1 GTP         0.3897
     33 HOG2        3.0778   -3.9852   -8.0833 H         1 GTP         0.5007
     34 HOG3       -0.5704   -5.0825   -7.7332 H         1 GTP         0.5007
     35 HOB2        4.4378   -1.2285   -6.5733 H         1 GTP         0.5193
     36 HOA2        1.8312    2.4926   -3.6265 H         1 GTP         0.4890
     37 H5'         1.3495    0.2323   -2.1554 H         1 GTP         0.0511
     38 H5''        2.1262   -1.3685   -2.0437 H         1 GTP         0.0511
     39 H4'         3.8049   -0.1388   -0.4009 H         1 GTP         0.1554
     40 H3'         1.6783   -1.7629    0.2715 H         1 GTP         0.0796
     41 HO3'        2.2232   -1.2979    2.3953 H         1 GTP         0.4259
     42 H2'        -0.0011    0.0027    0.0003 H         1 GTP         0.0621
     43 HO2'       -0.6141    0.5574    2.1082 H         1 GTP         0.4287
     44 H1'         1.7826    1.9024    1.6451 H         1 GTP         0.1525
     45 H8         -0.1126    1.6906   -1.6997 H         1 GTP         0.2675
     46 HN1        -1.3285    6.8855    1.9361 H         1 GTP         0.3601
     47 HN21        0.9153    5.4446    4.1732 H         1 GTP         0.4770
     48 HN22       -0.1624    6.7706    3.7948 H         1 GTP         0.4770
     49 H49        -1.5768    3.7405   -1.9429 H         1 GTP         0.5213
@<TRIPOS>BOND
     1    1    2 2
     2    1    3 1
     3    1    4 1
     4    1    5 1
     5    3   33 1
     6    4   34 1
     7    5    6 1
     8    6    7 2
     9    6    8 1
    10    6    9 1
    11    8   35 1
    12    9   10 1
    13   10   11 2
    14   10   12 1
    15   10   13 1
    16   12   36 1
    17   13   14 1
    18   14   15 1
    19   14   37 1
    20   14   38 1
    21   15   16 1
    22   15   17 1
    23   15   39 1
    24   16   21 1
    25   17   18 1
    26   17   19 1
    27   17   40 1
    28   18   41 1
    29   19   20 1
    30   19   21 1
    31   19   42 1
    32   20   43 1
    33   21   22 1
    34   21   44 1
    35   22   23 ar
    36   22   32 ar
    37   23   24 ar
    38   23   45 1
    39   24   25 ar
    40   24   49 1
    41   25   26 ar
    42   25   32 ar
    43   26   27 2
    44   26   28 ar
    45   28   29 ar
    46   28   46 1
    47   29   30 1
    48   29   31 ar
    49   30   47 1
    50   30   48 1
    51   31   32 ar
@<TRIPOS>SUBSTRUCTURE
     1 GTP         1 GROUP 0 A     ****
@<TRIPOS>MOLECULE
[[5-(2-amino-6-oxo-7,8-dihydro-1~{H}-purin-8-ylium-9-yl)-3,4-dihydroxy-tetrahydrofuran-2-yl]methoxy-hydroxy-phosphoryl] phosphono hydrogen phosphate
   49    51     1     0     0
SMALL
USER_CHARGES

@<TRIPOS>ATOM
      1 PG         -3.5678   -2.2207   -3.4564 P.3       1 GTP         1.7996
      2 O1G        -4.0731   -1.9906   -2.0626 O.2       1 GTP        -0.8112
      3 O2G        -3.7903   -3.7134   -4.0344 O.3       1 GTP        -0.7934
      4 O3G        -4.2262   -1.2756   -4.5905 O.3       1 GTP        -0.7934
      5 O3B        -1.9825   -1.9718   -3.6480 O.3       1 GTP        -0.8067
      6 PB         -0.6931   -2.6614   -2.9611 P.3       1 GTP         1.9429
      7 O1B        -0.6290   -2.5182   -1.4690 O.2       1 GTP        -0.8303
      8 O2B        -0.7304   -4.1826   -3.5067 O.3       1 GTP        -0.7951
      9 O3A         0.5552   -2.0432   -3.7774 O.3       1 GTP        -0.7994
     10 PA          2.1468   -2.2811   -3.6362 P.3       1 GTP         1.7871
     11 O1A         2.5767   -3.7041   -3.8445 O.2       1 GTP        -0.8044
     12 O2A         2.7731   -1.2324   -4.6970 O.3       1 GTP        -0.8076
     13 O5'         2.5234   -1.6624   -2.1893 O.3       1 GTP        -0.5620
     14 C5'         2.2816   -0.2918   -1.9206 C.3       1 GTP         0.1570
     15 C4'         2.7248    0.0226   -0.4980 C.3       1 GTP         0.1395
     16 O4'         2.4697    1.4219   -0.2462 O.3       1 GTP        -0.3978
     17 C3'         1.9404   -0.7419    0.5596 C.3       1 GTP         0.0953
     18 O3'         2.7418   -0.8086    1.7389 O.3       1 GTP        -0.5639
     19 C2'         0.7477    0.1630    0.7858 C.3       1 GTP         0.0640
     20 O2'         0.1373   -0.0577    2.0407 O.3       1 GTP        -0.5724
     21 C1'         1.3733    1.5427    0.6747 C.3       1 GTP         0.4182
     22 N9          0.4520    2.5240    0.1767 N.pl3     1 GTP        -0.4563
     23 C8         -0.3350    3.3125    0.8998 C.ar      1 GTP         0.2386
     24 N7         -1.0716    4.1171    0.1405 N.pl3     1 GTP        -0.4432
     25 C5         -0.7219    3.8110   -1.1464 C.ar      1 GTP        -0.2050
     26 C6         -1.2133    4.3827   -2.3917 C.ar      1 GTP         0.7599
     27 O6         -2.0567    5.2674   -2.4335 O.2       1 GTP        -0.5606
     28 N1         -0.5926    3.7846   -3.4870 N.pl3     1 GTP        -0.5020
     29 C2          0.3749    2.7691   -3.3983 C.ar      1 GTP         0.7674
     30 N2          0.8624    2.3146   -4.5959 N.pl3     1 GTP        -0.9014
     31 N3          0.7851    2.2875   -2.2493 N.2       1 GTP        -0.6718
     32 C4          0.2042    2.8436   -1.1486 C.ar      1 GTP         0.3897
     33 HOG2       -3.3832   -4.4710   -3.5629 H         1 GTP         0.5007
     34 HOG3       -5.1957   -1.3122   -4.7349 H         1 GTP         0.5007
     35 HOB2        0.0168   -4.7815   -3.2945 H         1 GTP         0.5193
     36 HOA2        3.7478   -1.1363   -4.7496 H         1 GTP         0.4890
     37 H5'         2.8429    0.3147   -2.6388 H         1 GTP         0.0511
     38 H5''        1.2125   -0.0898   -2.0417 H         1 GTP         0.0511
     39 H4'         3.8049   -0.1388   -0.4009 H         1 GTP         0.1554
     40 H3'         1.6783   -1.7629    0.2715 H         1 GTP         0.0796
     41 HO3'        2.2232   -1.2979    2.3953 H         1 GTP         0.4259
     42 H2'        -0.0011    0.0027    0.0003 H         1 GTP         0.0621
     43 HO2'       -0.6141    0.5574    2.1082 H         1 GTP         0.4287
     44 H1'         1.7826    1.9024    1.6451 H         1 GTP         0.1525
     45 H8         -0.3766    3.3075    1.9750 H         1 GTP         0.2675
     46 HN1        -0.8580    4.1049   -4.4138 H         1 GTP         0.3601
     47 HN21        1.5490    1.5963   -4.5827 H         1 GTP         0.4770
     48 HN22        0.5109    2.7205   -5.4321 H         1 GTP         0.4770
     49 H49        -1.7420    4.8034    0.4575 H         1 GTP         0.5213
@<TRIPOS>BOND
     1    1    2 2
     2    1    3 1
     3    1    4 1
     4    1    5 1
     5    3   33 1
     6    4   34 1
     7    5    6 1
     8    6    7 2
     9    6    8 1
    10    6    9 1
    11    8   35 1
    12    9   10 1
    13   10   11 2
    14   10   12 1
    15   10   13 1
    16   12   36 1
    17   13   14 1
    18   14   15 1
    19   14   37 1
    20   14   38 1
    21   15   16 1
    22   15   17 1
    23   15   39 1
    24   16   21 1
    25   17   18 1
    26   17   19 1
    27   17   40 1
    28   18   41 1
    29   19   20 1
    30   19   21 1
    31   19   42 1
    32   20   43 1
    33   21   22 1
    34   21   44 1
    35   22   23 ar
    36   22   32 ar
    37   23   24 ar
    38   23   45 1
    39   24   25 ar
    40   24   49 1
    41   25   26 ar
    42   25   32 ar
    43   26   27 2
    44   26   28 ar
    45   28   29 ar
    46   28   46 1
    47   29   30 1
    48   29   31 ar
    49   30   47 1
    50   30   48 1
    51   31   32 ar
@<TRIPOS>SUBSTRUCTURE
     1 GTP         1 GROUP 0 A     ****
@<TRIPOS>MOLECULE
[[5-(2-amino-6-oxo-7,8-dihydro-1~{H}-purin-8-ylium-9-yl)-3,4-dihydroxy-tetrahydrofuran-2-yl]methoxy-hydroxy-phosphoryl] phosphono hydrogen phosphate
   49    51     1     0     0
SMALL
USER_CHARGES

@<TRIPOS>ATOM
      1 PG         -0.9496   -2.9966   -6.6908 P.3       1 GTP         1.7996
      2 O1G        -0.7045   -3.0785   -8.1688 O.2       1 GTP        -0.8112
      3 O2G        -2.3680   -2.3528   -6.2603 O.3       1 GTP        -0.7934
      4 O3G        -0.9265   -4.4124   -5.9113 O.3       1 GTP        -0.7934
      5 O3B         0.1311   -2.1131   -5.8765 O.3       1 GTP        -0.8067
      6 PB          0.5580   -0.5591   -5.9914 P.3       1 GTP         1.9429
      7 O1B         1.1021   -0.1584   -7.3310 O.2       1 GTP        -0.8303
      8 O2B        -0.7632    0.2419   -5.5163 O.3       1 GTP        -0.7951
      9 O3A         1.5520   -0.3390   -4.7383 O.3       1 GTP        -0.7994
     10 PA          2.3560    0.9665   -4.2292 P.3       1 GTP         1.7871
     11 O1A         3.3240    1.5225   -5.2328 O.2       1 GTP        -0.8044
     12 O2A         1.1743    1.9867   -3.8051 O.3       1 GTP        -0.8076
     13 O5'         3.0192    0.5132   -2.8246 O.3       1 GTP        -0.5620
     14 C5'         2.2816   -0.2918   -1.9206 C.3       1 GTP         0.1570
     15 C4'         2.7248    0.0226   -0.4980 C.3       1 GTP         0.1395
     16 O4'         2.4697    1.4219   -0.2462 O.3       1 GTP        -0.3978
     17 C3'         1.9404   -0.7419    0.5596 C.3       1 GTP         0.0953
     18 O3'         2.7418   -0.8086    1.7389 O.3       1 GTP        -0.5639
     19 C2'         0.7477    0.1630    0.7858 C.3       1 GTP         0.0640
     20 O2'         0.1373   -0.0577    2.0407 O.3       1 GTP        -0.5724
     21 C1'         1.3733    1.5427    0.6747 C.3       1 GTP         0.4182
     22 N9          0.4520    2.5240    0.1767 N.pl3     1 GTP        -0.4563
     23 C8         -0.2009    2.4849   -0.9792 C.ar      1 GTP         0.2386
     24 N7         -0.9840    3.5454   -1.1481 N.pl3     1 GTP        -0.4432
     25 C5         -0.8090    4.3005   -0.0206 C.ar      1 GTP        -0.2050
     26 C6         -1.4206    5.5724    0.3362 C.ar      1 GTP         0.7599
     27 O6         -2.2199    6.1544   -0.3836 O.2       1 GTP        -0.5606
     28 N1         -0.9680    6.0043    1.5817 N.pl3     1 GTP        -0.5020
     29 C2         -0.0474    5.3055    2.3814 C.ar      1 GTP         0.7674
     30 N2          0.2680    5.9024    3.5740 N.pl3     1 GTP        -0.9014
     31 N3          0.4755    4.1601    2.0138 N.2       1 GTP        -0.6718
     32 C4          0.0611    3.6981    0.8001 C.ar      1 GTP         0.3897
     33 HOG2       -2.5749   -1.4337   -6.5330 H         1 GTP         0.5007
     34 HOG3       -1.5694   -5.1069   -6.1690 H         1 GTP         0.5007
     35 HOB2       -0.7164    1.2163   -5.4139 H         1 GTP         0.5193
     36 HOA2        1.4133    2.8436   -3.3920 H         1 GTP         0.4890
     37 H5'         1.2150   -0.0785   -2.0448 H         1 GTP         0.0511
     38 H5''        2.4641   -1.3458   -2.1540 H         1 GTP         0.0511
     39 H4'         3.8049   -0.1388   -0.4009 H         1 GTP         0.1554
     40 H3'         1.6783   -1.7629    0.2715 H         1 GTP         0.0796
     41 HO3'        2.2232   -1.2979    2.3953 H         1 GTP         0.4259
     42 H2'        -0.0011    0.0027    0.0003 H         1 GTP         0.0621
     43 HO2'       -0.1563   -0.9855    2.0596 H         1 GTP         0.4287
     44 H1'         1.7826    1.9024    1.6451 H         1 GTP         0.1525
     45 H8         -0.1126    1.6906   -1.6997 H         1 GTP         0.2675
     46 HN1        -1.3285    6.8855    1.9361 H         1 GTP         0.3601
     47 HN21        0.9153    5.4446    4.1732 H         1 GTP         0.4770
     48 HN22       -0.1624    6.7706    3.7948 H         1 GTP         0.4770
     49 H49        -1.5768    3.7405   -1.9429 H         1 GTP         0.5213
@<TRIPOS>BOND
     1    1    2 2
     2    1    3 1
     3    1    4 1
     4    1    5 1
     5    3   33 1
     6    4   34 1
     7    5    6 1
     8    6    7 2
     9    6    8 1
    10    6    9 1
    11    8   35 1
    12    9   10 1
    13   10   11 2
    14   10   12 1
    15   10   13 1
    16   12   36 1
    17   13   14 1
    18   14   15 1
    19   14   37 1
    20   14   38 1
    21   15   16 1
    22   15   17 1
    23   15   39 1
    24   16   21 1
    25   17   18 1
    26   17   19 1
    27   17   40 1
    28   18   41 1
    29   19   20 1
    30   19   21 1
    31   19   42 1
    32   20   43 1
    33   21   22 1
    34   21   44 1
    35   22   23 ar
    36   22   32 ar
    37   23   24 ar
    38   23   45 1
    39   24   25 ar
    40   24   49 1
    41   25   26 ar
    42   25   32 ar
    43   26   27 2
    44   26   28 ar
    45   28   29 ar
    46   28   46 1
    47   29   30 1
    48   29   31 ar
    49   30   47 1
    50   30   48 1
    51   31   32 ar
@<TRIPOS>SUBSTRUCTURE
     1 GTP         1 GROUP 0 A     ****
@<TRIPOS>MOLECULE
[[5-(2-amino-6-oxo-7,8-dihydro-1~{H}-purin-8-ylium-9-yl)-3,4-dihydroxy-tetrahydrofuran-2-yl]methoxy-hydroxy-phosphoryl] phosphono hydrogen phosphate
   49    51     1     0     0
SMALL
USER_CHARGES

@<TRIPOS>ATOM
      1 PG         -2.6467   -0.9078   -3.9852 P.3       1 GTP         1.7996
      2 O1G        -3.4798   -2.1348   -4.2125 O.2       1 GTP        -0.8112
      3 O2G        -3.4439    0.4951   -4.0756 O.3       1 GTP        -0.7934
      4 O3G        -1.9134   -0.8323   -2.5468 O.3       1 GTP        -0.7934
      5 O3B        -1.4267   -0.7191   -5.0281 O.3       1 GTP        -0.8067
      6 PB         -0.1471   -1.6450   -5.3680 P.3       1 GTP         1.9429
      7 O1B        -0.4853   -3.0179   -5.8695 O.2       1 GTP        -0.8303
      8 O2B         0.7297   -0.7383   -6.3790 O.3       1 GTP        -0.7951
      9 O3A         0.7366   -1.5914   -4.0178 O.3       1 GTP        -0.7994
     10 PA          2.1468   -2.2811   -3.6362 P.3       1 GTP         1.7871
     11 O1A         2.1340   -3.7809   -3.6965 O.2       1 GTP        -0.8044
     12 O2A         3.1891   -1.5809   -4.6563 O.3       1 GTP        -0.8076
     13 O5'         2.5234   -1.6624   -2.1893 O.3       1 GTP        -0.5620
     14 C5'         2.2816   -0.2918   -1.9206 C.3       1 GTP         0.1570
     15 C4'         2.7248    0.0226   -0.4980 C.3       1 GTP         0.1395
     16 O4'         2.4697    1.4219   -0.2462 O.3       1 GTP        -0.3978
     17 C3'         1.9404   -0.7419    0.5596 C.3       1 GTP         0.0953
     18 O3'         2.7418   -0.8086    1.7389 O.3       1 GTP        -0.5639
     19 C2'         0.7477    0.1630    0.7858 C.3       1 GTP         0.0640
     20 O2'         0.1373   -0.0577    2.0407 O.3       1 GTP        -0.5724
     21 C1'         1.3733    1.5427    0.6747 C.3       1 GTP         0.4182
     22 N9          0.4520    2.5240    0.1767 N.pl3     1 GTP        -0.4563
     23 C8          0.5671    3.2221   -0.9473 C.ar      1 GTP         0.2386
     24 N7         -0.4560    4.0508   -1.1290 N.pl3     1 GTP        -0.4432
     25 C5         -1.2671    3.8585   -0.0441 C.ar      1 GTP        -0.2050
     26 C6         -2.5318    4.5014    0.2817 C.ar      1 GTP         0.7599
     27 O6         -3.0527    5.3493   -0.4293 O.2       1 GTP        -0.5606
     28 N1         -3.0357    4.0149    1.4868 N.pl3     1 GTP        -0.5020
     29 C2         -2.4069    3.0373    2.2768 C.ar      1 GTP         0.7674
     30 N2         -3.0679    2.6964    3.4278 N.pl3     1 GTP        -0.9014
     31 N3         -1.2653    2.4872    1.9379 N.2       1 GTP        -0.6718
     32 C4         -0.7342    2.9334    0.7643 C.ar      1 GTP         0.3897
     33 HOG2       -3.8961    0.7314   -4.9133 H         1 GTP         0.5007
     34 HOG3       -2.4615   -0.8391   -1.7334 H         1 GTP         0.5007
     35 HOB2        0.3654   -0.5279   -7.2651 H         1 GTP         0.5193
     36 HOA2        3.0874   -1.7368   -5.6192 H         1 GTP         0.4890
     37 H5'         2.8429    0.3147   -2.6388 H         1 GTP         0.0511
     38 H5''        1.2125   -0.0898   -2.0417 H         1 GTP         0.0511
     39 H4'         3.8049   -0.1388   -0.4009 H         1 GTP         0.1554
     40 H3'         1.6783   -1.7629    0.2715 H         1 GTP         0.0796
     41 HO3'        2.2232   -1.2979    2.3953 H         1 GTP         0.4259
     42 H2'        -0.0011    0.0027    0.0003 H         1 GTP         0.0621
     43 HO2'       -0.1563   -0.9855    2.0596 H         1 GTP         0.4287
     44 H1'         1.7826    1.9024    1.6451 H         1 GTP         0.1525
     45 H8          1.3888    3.1325   -1.6361 H         1 GTP         0.2675
     46 HN1        -3.9188    4.3932    1.8170 H         1 GTP         0.3601
     47 HN21       -2.6609    2.0087    4.0186 H         1 GTP         0.4770
     48 HN22       -3.9293    3.1496    3.6283 H         1 GTP         0.4770
     49 H49        -0.5938    4.6820   -1.9060 H         1 GTP         0.5213
@<TRIPOS>BOND
     1    1    2 2
     2    1    3 1
     3    1    4 1
     4    1    5 1
     5    3   33 1
     6    4   34 1
     7    5    6 1
     8    6    7 2
     9    6    8 1
    10    6    9 1
    11    8   35 1
    12    9   10 1
    13   10   11 2
    14   10   12 1
    15   10   13 1
    16   12   36 1
    17   13   14 1
    18   14   15 1
    19   14   37 1
    20   14   38 1
    21   15   16 1
    22   15   17 1
    23   15   39 1
    24   16   21 1
    25   17   18 1
    26   17   19 1
    27   17   40 1
    28   18   41 1
    29   19   20 1
    30   19   21 1
    31   19   42 1
    32   20   43 1
    33   21   22 1
    34   21   44 1
    35   22   23 ar
    36   22   32 ar
    37   23   24 ar
    38   23   45 1
    39   24   25 ar
    40   24   49 1
    41   25   26 ar
    42   25   32 ar
    43   26   27 2
    44   26   28 ar
    45   28   29 ar
    46   28   46 1
    47   29   30 1
    48   29   31 ar
    49   30   47 1
    50   30   48 1
    51   31   32 ar
@<TRIPOS>SUBSTRUCTURE
     1 GTP         1 GROUP 0 A     ****
@<TRIPOS>MOLECULE
[[5-(2-amino-6-oxo-7,8-dihydro-1~{H}-purin-8-ylium-9-yl)-3,4-dihydroxy-tetrahydrofuran-2-yl]methoxy-hydroxy-phosphoryl] phosphono hydrogen phosphate
   49    51     1     0     0
SMALL
USER_CHARGES

@<TRIPOS>ATOM
      1 PG         -3.3340   -1.6555   -5.1403 P.3       1 GTP         1.7996
      2 O1G        -3.3645   -0.6582   -6.2609 O.2       1 GTP        -0.8112
      3 O2G        -4.3271   -1.3381   -3.9056 O.3       1 GTP        -0.7934
      4 O3G        -3.7221   -3.1684   -5.5566 O.3       1 GTP        -0.7934
      5 O3B        -1.8917   -1.8296   -4.4323 O.3       1 GTP        -0.8067
      6 PB         -0.4555   -2.2895   -5.0121 P.3       1 GTP         1.9429
      7 O1B        -0.4338   -3.6674   -5.6052 O.2       1 GTP        -0.8303
      8 O2B        -0.0461   -1.0970   -6.0238 O.3       1 GTP        -0.7951
      9 O3A         0.5552   -2.0432   -3.7774 O.3       1 GTP        -0.7994
     10 PA          2.1468   -2.2811   -3.6362 P.3       1 GTP         1.7871
     11 O1A         2.5767   -3.7041   -3.8445 O.2       1 GTP        -0.8044
     12 O2A         2.7731   -1.2324   -4.6970 O.3       1 GTP        -0.8076
     13 O5'         2.5234   -1.6624   -2.1893 O.3       1 GTP        -0.5620
     14 C5'         2.2816   -0.2918   -1.9206 C.3       1 GTP         0.1570
     15 C4'         2.7248    0.0226   -0.4980 C.3       1 GTP         0.1395
     16 O4'         2.4697    1.4219   -0.2462 O.3       1 GTP        -0.3978
     17 C3'         1.9404   -0.7419    0.5596 C.3       1 GTP         0.0953
     18 O3'         2.7418   -0.8086    1.7389 O.3       1 GTP        -0.5639
     19 C2'         0.7477    0.1630    0.7858 C.3       1 GTP         0.0640
     20 O2'         0.1373   -0.0577    2.0407 O.3       1 GTP        -0.5724
     21 C1'         1.3733    1.5427    0.6747 C.3       1 GTP         0.4182
     22 N9          0.4520    2.5240    0.1767 N.pl3     1 GTP        -0.4563
     23 C8         -0.2009    2.4849   -0.9792 C.ar      1 GTP         0.2386
     24 N7         -0.9840    3.5454   -1.1481 N.pl3     1 GTP        -0.4432
     25 C5         -0.8090    4.3005   -0.0206 C.ar      1 GTP        -0.2050
     26 C6         -1.4206    5.5724    0.3362 C.ar      1 GTP         0.7599
     27 O6         -2.2199    6.1544   -0.3836 O.2       1 GTP        -0.5606
     28 N1         -0.9680    6.0043    1.5817 N.pl3     1 GTP        -0.5020
     29 C2         -0.0474    5.3055    2.3814 C.ar      1 GTP         0.7674
     30 N2          0.2680    5.9024    3.5740 N.pl3     1 GTP        -0.9014
     31 N3          0.4755    4.1601    2.0138 N.2       1 GTP        -0.6718
     32 C4          0.0611    3.6981    0.8001 C.ar      1 GTP         0.3897
     33 HOG2       -4.2154   -0.4994   -3.4095 H         1 GTP         0.5007
     34 HOG3       -4.6086   -3.3433   -5.9381 H         1 GTP         0.5007
     35 HOB2       -0.5798   -0.9585   -6.8350 H         1 GTP         0.5193
     36 HOA2        2.5861   -1.3552   -5.6519 H         1 GTP         0.4890
     37 H5'         2.8429    0.3147   -2.6388 H         1 GTP         0.0511
     38 H5''        1.2125   -0.0898   -2.0417 H         1 GTP         0.0511
     39 H4'         3.8049   -0.1388   -0.4009 H         1 GTP         0.1554
     40 H3'         1.6783   -1.7629    0.2715 H         1 GTP         0.0796
     41 HO3'        3.5554   -1.2733    1.4914 H         1 GTP         0.4259
     42 H2'        -0.0011    0.0027    0.0003 H         1 GTP         0.0621
     43 HO2'       -0.1563   -0.9855    2.0596 H         1 GTP         0.4287
     44 H1'         1.7826    1.9024    1.6451 H         1 GTP         0.1525
     45 H8         -0.1126    1.6906   -1.6997 H         1 GTP         0.2675
     46 HN1        -1.3285    6.8855    1.9361 H         1 GTP         0.3601
     47 HN21        0.9153    5.4446    4.1732 H         1 GTP         0.4770
     48 HN22       -0.1624    6.7706    3.7948 H         1 GTP         0.4770
     49 H49        -1.5768    3.7405   -1.9429 H         1 GTP         0.5213
@<TRIPOS>BOND
     1    1    2 2
     2    1    3 1
     3    1    4 1
     4    1    5 1
     5    3   33 1
     6    4   34 1
     7    5    6 1
     8    6    7 2
     9    6    8 1
    10    6    9 1
    11    8   35 1
    12    9   10 1
    13   10   11 2
    14   10   12 1
    15   10   13 1
    16   12   36 1
    17   13   14 1
    18   14   15 1
    19   14   37 1
    20   14   38 1
    21   15   16 1
    22   15   17 1
    23   15   39 1
    24   16   21 1
    25   17   18 1
    26   17   19 1
    27   17   40 1
    28   18   41 1
    29   19   20 1
    30   19   21 1
    31   19   42 1
    32   20   43 1
    33   21   22 1
    34   21   44 1
    35   22   23 ar
    36   22   32 ar
    37   23   24 ar
    38   23   45 1
    39   24   25 ar
    40   24   49 1
    41   25   26 ar
    42   25   32 ar
    43   26   27 2
    44   26   28 ar
    45   28   29 ar
    46   28   46 1
    47   29   30 1
    48   29   31 ar
    49   30   47 1
    50   30   48 1
    51   31   32 ar
@<TRIPOS>SUBSTRUCTURE
     1 GTP         1 GROUP 0 A     ****
@<TRIPOS>MOLECULE
[[5-(2-amino-6-oxo-7,8-dihydro-1~{H}-purin-8-ylium-9-yl)-3,4-dihydroxy-tetrahydrofuran-2-yl]methoxy-hydroxy-phosphoryl] phosphono hydrogen phosphate
   49    51     1     0     0
SMALL
USER_CHARGES

@<TRIPOS>ATOM
      1 PG          0.2433   -3.3420   -5.8542 P.3       1 GTP         1.7996
      2 O1G         1.2292   -3.7413   -4.7960 O.2       1 GTP        -0.8112
      3 O2G         0.7014   -3.6432   -7.3744 O.3       1 GTP        -0.7934
      4 O3G        -1.2038   -4.0543   -5.7486 O.3       1 GTP        -0.7934
      5 O3B        -0.1242   -1.7683   -5.8732 O.3       1 GTP        -0.8067
      6 PB          0.7876   -0.4517   -6.0867 P.3       1 GTP         1.9429
      7 O1B         1.5037   -0.3950   -7.4038 O.2       1 GTP        -0.8303
      8 O2B        -0.2277    0.7732   -5.8006 O.3       1 GTP        -0.7951
      9 O3A         1.7298   -0.4190   -4.7761 O.3       1 GTP        -0.7994
     10 PA          2.8837    0.6137   -4.3156 P.3       1 GTP         1.7871
     11 O1A         4.0324    0.7203   -5.2762 O.2       1 GTP        -0.8044
     12 O2A         2.0739    1.9954   -4.0872 O.3       1 GTP        -0.8076
     13 O5'         3.2876    0.1332   -2.8242 O.3       1 GTP        -0.5620
     14 C5'         2.2816   -0.2918   -1.9206 C.3       1 GTP         0.1570
     15 C4'         2.7248    0.0226   -0.4980 C.3       1 GTP         0.1395
     16 O4'         2.4697    1.4219   -0.2462 O.3       1 GTP        -0.3978
     17 C3'         1.9404   -0.7419    0.5596 C.3       1 GTP         0.0953
     18 O3'         2.7418   -0.8086    1.7389 O.3       1 GTP        -0.5639
     19 C2'         0.7477    0.1630    0.7858 C.3       1 GTP         0.0640
     20 O2'         0.1373   -0.0577    2.0407 O.3       1 GTP        -0.5724
     21 C1'         1.3733    1.5427    0.6747 C.3       1 GTP         0.4182
     22 N9          0.4520    2.5240    0.1767 N.pl3     1 GTP        -0.4563
     23 C8          0.5671    3.2221   -0.9473 C.ar      1 GTP         0.2386
     24 N7         -0.4560    4.0508   -1.1290 N.pl3     1 GTP        -0.4432
     25 C5         -1.2671    3.8585   -0.0441 C.ar      1 GTP        -0.2050
     26 C6         -2.5318    4.5014    0.2817 C.ar      1 GTP         0.7599
     27 O6         -3.0527    5.3493   -0.4293 O.2       1 GTP        -0.5606
     28 N1         -3.0357    4.0149    1.4868 N.pl3     1 GTP        -0.5020
     29 C2         -2.4069    3.0373    2.2768 C.ar      1 GTP         0.7674
     30 N2         -3.0679    2.6964    3.4278 N.pl3     1 GTP        -0.9014
     31 N3         -1.2653    2.4872    1.9379 N.2       1 GTP        -0.6718
     32 C4         -0.7342    2.9334    0.7643 C.ar      1 GTP         0.3897
     33 HOG2        1.5194   -3.2235   -7.7162 H         1 GTP         0.5007
     34 HOG3       -1.7386   -3.9249   -4.9367 H         1 GTP         0.5007
     35 HOB2       -0.9787    0.9205   -6.4142 H         1 GTP         0.5193
     36 HOA2        2.5542    2.7733   -3.7319 H         1 GTP         0.4890
     37 H5'         1.3495    0.2323   -2.1554 H         1 GTP         0.0511
     38 H5''        2.1262   -1.3685   -2.0437 H         1 GTP         0.0511
     39 H4'         3.8049   -0.1388   -0.4009 H         1 GTP         0.1554
     40 H3'         1.6783   -1.7629    0.2715 H         1 GTP         0.0796
     41 HO3'        2.2232   -1.2979    2.3953 H         1 GTP         0.4259
     42 H2'        -0.0011    0.0027    0.0003 H         1 GTP         0.0621
     43 HO2'       -0.1563   -0.9855    2.0596 H         1 GTP         0.4287
     44 H1'         1.7826    1.9024    1.6451 H         1 GTP         0.1525
     45 H8          1.3888    3.1325   -1.6361 H         1 GTP         0.2675
     46 HN1        -3.9188    4.3932    1.8170 H         1 GTP         0.3601
     47 HN21       -3.9293    3.1498    3.6281 H         1 GTP         0.4770
     48 HN22       -2.6611    2.0087    4.0188 H         1 GTP         0.4770
     49 H49        -0.5938    4.6820   -1.9060 H         1 GTP         0.5213
@<TRIPOS>BOND
     1    1    2 2
     2    1    3 1
     3    1    4 1
     4    1    5 1
     5    3   33 1
     6    4   34 1
     7    5    6 1
     8    6    7 2
     9    6    8 1
    10    6    9 1
    11    8   35 1
    12    9   10 1
    13   10   11 2
    14   10   12 1
    15   10   13 1
    16   12   36 1
    17   13   14 1
    18   14   15 1
    19   14   37 1
    20   14   38 1
    21   15   16 1
    22   15   17 1
    23   15   39 1
    24   16   21 1
    25   17   18 1
    26   17   19 1
    27   17   40 1
    28   18   41 1
    29   19   20 1
    30   19   21 1
    31   19   42 1
    32   20   43 1
    33   21   22 1
    34   21   44 1
    35   22   23 ar
    36   22   32 ar
    37   23   24 ar
    38   23   45 1
    39   24   25 ar
    40   24   49 1
    41   25   26 ar
    42   25   32 ar
    43   26   27 2
    44   26   28 ar
    45   28   29 ar
    46   28   46 1
    47   29   30 1
    48   29   31 ar
    49   30   47 1
    50   30   48 1
    51   31   32 ar
@<TRIPOS>SUBSTRUCTURE
     1 GTP         1 GROUP 0 A     ****
@<TRIPOS>MOLECULE
[[5-(2-amino-6-oxo-7,8-dihydro-1~{H}-purin-8-ylium-9-yl)-3,4-dihydroxy-tetrahydrofuran-2-yl]methoxy-hydroxy-phosphoryl] phosphono hydrogen phosphate
   49    51     1     0     0
SMALL
USER_CHARGES

@<TRIPOS>ATOM
      1 PG          2.5324   -3.3493   -6.7450 P.3       1 GTP         1.7996
      2 O1G         3.2827   -3.1258   -8.0249 O.2       1 GTP        -0.8112
      3 O2G         1.8567   -4.8087   -6.5859 O.3       1 GTP        -0.7934
      4 O3G         3.4110   -3.1921   -5.3974 O.3       1 GTP        -0.7934
      5 O3B         1.3009   -2.3320   -6.4995 O.3       1 GTP        -0.8067
      6 PB          1.2428   -0.7229   -6.3675 P.3       1 GTP         1.9429
      7 O1B         1.7374    0.0207   -7.5731 O.2       1 GTP        -0.8303
      8 O2B        -0.2909   -0.4231   -5.9539 O.3       1 GTP        -0.7951
      9 O3A         2.0268   -0.4208   -4.9889 O.3       1 GTP        -0.7994
     10 PA          2.3560    0.9665   -4.2292 P.3       1 GTP         1.7871
     11 O1A         3.1811    1.9277   -5.0346 O.2       1 GTP        -0.8044
     12 O2A         0.8921    1.5216   -3.8219 O.3       1 GTP        -0.8076
     13 O5'         3.0192    0.5132   -2.8246 O.3       1 GTP        -0.5620
     14 C5'         2.2816   -0.2918   -1.9206 C.3       1 GTP         0.1570
     15 C4'         2.7248    0.0226   -0.4980 C.3       1 GTP         0.1395
     16 O4'         2.4697    1.4219   -0.2462 O.3       1 GTP        -0.3978
     17 C3'         1.9404   -0.7419    0.5596 C.3       1 GTP         0.0953
     18 O3'         2.7418   -0.8086    1.7389 O.3       1 GTP        -0.5639
     19 C2'         0.7477    0.1630    0.7858 C.3       1 GTP         0.0640
     20 O2'         0.1373   -0.0577    2.0407 O.3       1 GTP        -0.5724
     21 C1'         1.3733    1.5427    0.6747 C.3       1 GTP         0.4182
     22 N9          0.4520    2.5240    0.1767 N.pl3     1 GTP        -0.4563
     23 C8          0.5671    3.2221   -0.9473 C.ar      1 GTP         0.2386
     24 N7         -0.4560    4.0508   -1.1290 N.pl3     1 GTP        -0.4432
     25 C5         -1.2671    3.8585   -0.0441 C.ar      1 GTP        -0.2050
     26 C6         -2.5318    4.5014    0.2817 C.ar      1 GTP         0.7599
     27 O6         -3.0527    5.3493   -0.4293 O.2       1 GTP        -0.5606
     28 N1         -3.0357    4.0149    1.4868 N.pl3     1 GTP        -0.5020
     29 C2         -2.4069    3.0373    2.2768 C.ar      1 GTP         0.7674
     30 N2         -3.0679    2.6964    3.4278 N.pl3     1 GTP        -0.9014
     31 N3         -1.2653    2.4872    1.9379 N.2       1 GTP        -0.6718
     32 C4         -0.7342    2.9334    0.7643 C.ar      1 GTP         0.3897
     33 HOG2        2.4318   -5.6030   -6.6040 H         1 GTP         0.5007
     34 HOG3        3.8455   -2.3326   -5.2115 H         1 GTP         0.5007
     35 HOB2       -1.0035   -0.6195   -6.5987 H         1 GTP         0.5193
     36 HOA2        0.2642    1.7695   -4.5334 H         1 GTP         0.4890
     37 H5'         1.2150   -0.0785   -2.0448 H         1 GTP         0.0511
     38 H5''        2.4641   -1.3458   -2.1540 H         1 GTP         0.0511
     39 H4'         3.8049   -0.1388   -0.4009 H         1 GTP         0.1554
     40 H3'         1.6783   -1.7629    0.2715 H         1 GTP         0.0796
     41 HO3'        2.2232   -1.2979    2.3953 H         1 GTP         0.4259
     42 H2'        -0.0011    0.0027    0.0003 H         1 GTP         0.0621
     43 HO2'       -0.1563   -0.9855    2.0596 H         1 GTP         0.4287
     44 H1'         1.7826    1.9024    1.6451 H         1 GTP         0.1525
     45 H8          1.3888    3.1325   -1.6361 H         1 GTP         0.2675
     46 HN1        -3.9188    4.3932    1.8170 H         1 GTP         0.3601
     47 HN21       -2.6609    2.0087    4.0186 H         1 GTP         0.4770
     48 HN22       -3.9293    3.1496    3.6283 H         1 GTP         0.4770
     49 H49        -0.5938    4.6820   -1.9060 H         1 GTP         0.5213
@<TRIPOS>BOND
     1    1    2 2
     2    1    3 1
     3    1    4 1
     4    1    5 1
     5    3   33 1
     6    4   34 1
     7    5    6 1
     8    6    7 2
     9    6    8 1
    10    6    9 1
    11    8   35 1
    12    9   10 1
    13   10   11 2
    14   10   12 1
    15   10   13 1
    16   12   36 1
    17   13   14 1
    18   14   15 1
    19   14   37 1
    20   14   38 1
    21   15   16 1
    22   15   17 1
    23   15   39 1
    24   16   21 1
    25   17   18 1
    26   17   19 1
    27   17   40 1
    28   18   41 1
    29   19   20 1
    30   19   21 1
    31   19   42 1
    32   20   43 1
    33   21   22 1
    34   21   44 1
    35   22   23 ar
    36   22   32 ar
    37   23   24 ar
    38   23   45 1
    39   24   25 ar
    40   24   49 1
    41   25   26 ar
    42   25   32 ar
    43   26   27 2
    44   26   28 ar
    45   28   29 ar
    46   28   46 1
    47   29   30 1
    48   29   31 ar
    49   30   47 1
    50   30   48 1
    51   31   32 ar
@<TRIPOS>SUBSTRUCTURE
     1 GTP         1 GROUP 0 A     ****
@<TRIPOS>MOLECULE
[[5-(2-amino-6-oxo-7,8-dihydro-1~{H}-purin-8-ylium-9-yl)-3,4-dihydroxy-tetrahydrofuran-2-yl]methoxy-hydroxy-phosphoryl] phosphono hydrogen phosphate
   49    51     1     0     0
SMALL
USER_CHARGES

@<TRIPOS>ATOM
      1 PG          2.2156   -3.9870   -7.0817 P.3       1 GTP         1.7996
      2 O1G         3.0662   -5.0297   -6.4180 O.2       1 GTP        -0.8112
      3 O2G         2.7889   -3.4153   -8.4803 O.3       1 GTP        -0.7934
      4 O3G         0.7155   -4.4597   -7.4545 O.3       1 GTP        -0.7934
      5 O3B         1.9708   -2.6555   -6.1992 O.3       1 GTP        -0.8067
      6 PB          2.9948   -1.5687   -5.5823 P.3       1 GTP         1.9429
      7 O1B         3.9995   -2.1326   -4.6212 O.2       1 GTP        -0.8303
      8 O2B         3.6187   -0.8414   -6.8842 O.3       1 GTP        -0.7951
      9 O3A         2.0268   -0.4208   -4.9889 O.3       1 GTP        -0.7994
     10 PA          2.3560    0.9665   -4.2292 P.3       1 GTP         1.7871
     11 O1A         3.1811    1.9277   -5.0346 O.2       1 GTP        -0.8044
     12 O2A         0.8921    1.5216   -3.8219 O.3       1 GTP        -0.8076
     13 O5'         3.0192    0.5132   -2.8246 O.3       1 GTP        -0.5620
     14 C5'         2.2816   -0.2918   -1.9206 C.3       1 GTP         0.1570
     15 C4'         2.7248    0.0226   -0.4980 C.3       1 GTP         0.1395
     16 O4'         2.4697    1.4219   -0.2462 O.3       1 GTP        -0.3978
     17 C3'         1.9404   -0.7419    0.5596 C.3       1 GTP         0.0953
     18 O3'         2.7418   -0.8086    1.7389 O.3       1 GTP        -0.5639
     19 C2'         0.7477    0.1630    0.7858 C.3       1 GTP         0.0640
     20 O2'         0.1373   -0.0577    2.0407 O.3       1 GTP        -0.5724
     21 C1'         1.3733    1.5427    0.6747 C.3       1 GTP         0.4182
     22 N9          0.4520    2.5240    0.1767 N.pl3     1 GTP        -0.4563
     23 C8          0.5671    3.2221   -0.9473 C.ar      1 GTP         0.2386
     24 N7         -0.4560    4.0508   -1.1290 N.pl3     1 GTP        -0.4432
     25 C5         -1.2671    3.8585   -0.0441 C.ar      1 GTP        -0.2050
     26 C6         -2.5318    4.5014    0.2817 C.ar      1 GTP         0.7599
     27 O6         -3.0527    5.3493   -0.4293 O.2       1 GTP        -0.5606
     28 N1         -3.0357    4.0149    1.4868 N.pl3     1 GTP        -0.5020
     29 C2         -2.4069    3.0373    2.2768 C.ar      1 GTP         0.7674
     30 N2         -3.0679    2.6964    3.4278 N.pl3     1 GTP        -0.9014
     31 N3         -1.2653    2.4872    1.9379 N.2       1 GTP        -0.6718
     32 C4         -0.7342    2.9334    0.7643 C.ar      1 GTP         0.3897
     33 HOG2        3.6643   -2.9730   -8.4897 H         1 GTP         0.5007
     34 HOG3        0.5945   -5.2166   -8.0665 H         1 GTP         0.5007
     35 HOB2        4.2097   -0.0687   -6.7586 H         1 GTP         0.5193
     36 HOA2        0.2642    1.7695   -4.5334 H         1 GTP         0.4890
     37 H5'         1.2150   -0.0785   -2.0448 H         1 GTP         0.0511
     38 H5''        2.4641   -1.3458   -2.1540 H         1 GTP         0.0511
     39 H4'         3.8049   -0.1388   -0.4009 H         1 GTP         0.1554
     40 H3'         1.6783   -1.7629    0.2715 H         1 GTP         0.0796
     41 HO3'        2.2232   -1.2979    2.3953 H         1 GTP         0.4259
     42 H2'        -0.0011    0.0027    0.0003 H         1 GTP         0.0621
     43 HO2'       -0.1563   -0.9855    2.0596 H         1 GTP         0.4287
     44 H1'         1.7826    1.9024    1.6451 H         1 GTP         0.1525
     45 H8          1.3888    3.1325   -1.6361 H         1 GTP         0.2675
     46 HN1        -3.9188    4.3932    1.8170 H         1 GTP         0.3601
     47 HN21       -2.6609    2.0087    4.0186 H         1 GTP         0.4770
     48 HN22       -3.9293    3.1496    3.6283 H         1 GTP         0.4770
     49 H49        -0.5938    4.6820   -1.9060 H         1 GTP         0.5213
@<TRIPOS>BOND
     1    1    2 2
     2    1    3 1
     3    1    4 1
     4    1    5 1
     5    3   33 1
     6    4   34 1
     7    5    6 1
     8    6    7 2
     9    6    8 1
    10    6    9 1
    11    8   35 1
    12    9   10 1
    13   10   11 2
    14   10   12 1
    15   10   13 1
    16   12   36 1
    17   13   14 1
    18   14   15 1
    19   14   37 1
    20   14   38 1
    21   15   16 1
    22   15   17 1
    23   15   39 1
    24   16   21 1
    25   17   18 1
    26   17   19 1
    27   17   40 1
    28   18   41 1
    29   19   20 1
    30   19   21 1
    31   19   42 1
    32   20   43 1
    33   21   22 1
    34   21   44 1
    35   22   23 ar
    36   22   32 ar
    37   23   24 ar
    38   23   45 1
    39   24   25 ar
    40   24   49 1
    41   25   26 ar
    42   25   32 ar
    43   26   27 2
    44   26   28 ar
    45   28   29 ar
    46   28   46 1
    47   29   30 1
    48   29   31 ar
    49   30   47 1
    50   30   48 1
    51   31   32 ar
@<TRIPOS>SUBSTRUCTURE
     1 GTP         1 GROUP 0 A     ****
@<TRIPOS>MOLECULE
[[5-(2-amino-6-oxo-7,8-dihydro-1~{H}-purin-8-ylium-9-yl)-3,4-dihydroxy-tetrahydrofuran-2-yl]methoxy-hydroxy-phosphoryl] phosphono hydrogen phosphate
   49    51     1     0     0
SMALL
USER_CHARGES

@<TRIPOS>ATOM
      1 PG          2.1750   -5.4917   -6.0085 P.3       1 GTP         1.7996
      2 O1G         0.7448   -5.5778   -6.4536 O.2       1 GTP        -0.8112
      3 O2G         2.6242   -6.5890   -4.9104 O.3       1 GTP        -0.7934
      4 O3G         3.2715   -5.6641   -7.1836 O.3       1 GTP        -0.7934
      5 O3B         2.5856   -4.0843   -5.3287 O.3       1 GTP        -0.8067
      6 PB          2.5668   -2.5700   -5.8916 P.3       1 GTP         1.9429
      7 O1B         3.4259   -2.3424   -7.1004 O.2       1 GTP        -0.8303
      8 O2B         0.9949   -2.2510   -6.0930 O.3       1 GTP        -0.7951
      9 O3A         2.9276   -1.6737   -4.5982 O.3       1 GTP        -0.7994
     10 PA          3.0852   -0.0762   -4.4159 P.3       1 GTP         1.7871
     11 O1A         4.1533    0.5381   -5.2733 O.2       1 GTP        -0.8044
     12 O2A         1.5937    0.4784   -4.7077 O.3       1 GTP        -0.8076
     13 O5'         3.2876    0.1332   -2.8242 O.3       1 GTP        -0.5620
     14 C5'         2.2816   -0.2918   -1.9206 C.3       1 GTP         0.1570
     15 C4'         2.7248    0.0226   -0.4980 C.3       1 GTP         0.1395
     16 O4'         2.4697    1.4219   -0.2462 O.3       1 GTP        -0.3978
     17 C3'         1.9404   -0.7419    0.5596 C.3       1 GTP         0.0953
     18 O3'         2.7418   -0.8086    1.7389 O.3       1 GTP        -0.5639
     19 C2'         0.7477    0.1630    0.7858 C.3       1 GTP         0.0640
     20 O2'         0.1373   -0.0577    2.0407 O.3       1 GTP        -0.5724
     21 C1'         1.3733    1.5427    0.6747 C.3       1 GTP         0.4182
     22 N9          0.4520    2.5240    0.1767 N.pl3     1 GTP        -0.4563
     23 C8          0.5671    3.2221   -0.9473 C.ar      1 GTP         0.2386
     24 N7         -0.4560    4.0508   -1.1290 N.pl3     1 GTP        -0.4432
     25 C5         -1.2671    3.8585   -0.0441 C.ar      1 GTP        -0.2050
     26 C6         -2.5318    4.5014    0.2817 C.ar      1 GTP         0.7599
     27 O6         -3.0527    5.3493   -0.4293 O.2       1 GTP        -0.5606
     28 N1         -3.0357    4.0149    1.4868 N.pl3     1 GTP        -0.5020
     29 C2         -2.4069    3.0373    2.2768 C.ar      1 GTP         0.7674
     30 N2         -3.0679    2.6964    3.4278 N.pl3     1 GTP        -0.9014
     31 N3         -1.2653    2.4872    1.9379 N.2       1 GTP        -0.6718
     32 C4         -0.7342    2.9334    0.7643 C.ar      1 GTP         0.3897
     33 HOG2        2.1626   -6.6119   -4.0452 H         1 GTP         0.5007
     34 HOG3        3.2701   -5.0292   -7.9312 H         1 GTP         0.5007
     35 HOB2        0.4931   -2.7479   -6.7737 H         1 GTP         0.5193
     36 HOA2        1.4122    1.4351   -4.5904 H         1 GTP         0.4890
     37 H5'         1.3495    0.2323   -2.1554 H         1 GTP         0.0511
     38 H5''        2.1262   -1.3685   -2.0437 H         1 GTP         0.0511
     39 H4'         3.8049   -0.1388   -0.4009 H         1 GTP         0.1554
     40 H3'         1.6783   -1.7629    0.2715 H         1 GTP         0.0796
     41 HO3'        2.2232   -1.2979    2.3953 H         1 GTP         0.4259
     42 H2'        -0.0011    0.0027    0.0003 H         1 GTP         0.0621
     43 HO2'       -0.1563   -0.9855    2.0596 H         1 GTP         0.4287
     44 H1'         1.7826    1.9024    1.6451 H         1 GTP         0.1525
     45 H8          1.3888    3.1325   -1.6361 H         1 GTP         0.2675
     46 HN1        -3.9188    4.3932    1.8170 H         1 GTP         0.3601
     47 HN21       -2.6609    2.0087    4.0186 H         1 GTP         0.4770
     48 HN22       -3.9293    3.1496    3.6283 H         1 GTP         0.4770
     49 H49        -0.5938    4.6820   -1.9060 H         1 GTP         0.5213
@<TRIPOS>BOND
     1    1    2 2
     2    1    3 1
     3    1    4 1
     4    1    5 1
     5    3   33 1
     6    4   34 1
     7    5    6 1
     8    6    7 2
     9    6    8 1
    10    6    9 1
    11    8   35 1
    12    9   10 1
    13   10   11 2
    14   10   12 1
    15   10   13 1
    16   12   36 1
    17   13   14 1
    18   14   15 1
    19   14   37 1
    20   14   38 1
    21   15   16 1
    22   15   17 1
    23   15   39 1
    24   16   21 1
    25   17   18 1
    26   17   19 1
    27   17   40 1
    28   18   41 1
    29   19   20 1
    30   19   21 1
    31   19   42 1
    32   20   43 1
    33   21   22 1
    34   21   44 1
    35   22   23 ar
    36   22   32 ar
    37   23   24 ar
    38   23   45 1
    39   24   25 ar
    40   24   49 1
    41   25   26 ar
    42   25   32 ar
    43   26   27 2
    44   26   28 ar
    45   28   29 ar
    46   28   46 1
    47   29   30 1
    48   29   31 ar
    49   30   47 1
    50   30   48 1
    51   31   32 ar
@<TRIPOS>SUBSTRUCTURE
     1 GTP         1 GROUP 0 A     ****
@<TRIPOS>MOLECULE
[[5-(2-amino-6-oxo-7,8-dihydro-1~{H}-purin-8-ylium-9-yl)-3,4-dihydroxy-tetrahydrofuran-2-yl]methoxy-hydroxy-phosphoryl] phosphono hydrogen phosphate
   49    51     1     0     0
SMALL
USER_CHARGES

@<TRIPOS>ATOM
      1 PG          6.1569   -2.5731   -2.3715 P.3       1 GTP         1.7996
      2 O1G         6.1101   -4.0727   -2.3542 O.2       1 GTP        -0.8112
      3 O2G         6.1041   -1.8634   -0.9206 O.3       1 GTP        -0.7934
      4 O3G         7.4752   -1.9349   -3.0552 O.3       1 GTP        -0.7934
      5 O3B         4.9480   -1.8706   -3.1819 O.3       1 GTP        -0.8067
      6 PB          4.4843   -1.9721   -4.7262 P.3       1 GTP         1.9429
      7 O1B         5.5231   -1.5423   -5.7197 O.2       1 GTP        -0.8303
      8 O2B         3.9748   -3.4987   -4.8783 O.3       1 GTP        -0.7951
      9 O3A         3.0954   -1.1498   -4.7662 O.3       1 GTP        -0.7994
     10 PA          2.7556    0.3903   -4.4163 P.3       1 GTP         1.7871
     11 O1A         3.4961    1.3896   -5.2568 O.2       1 GTP        -0.8044
     12 O2A         1.1459    0.4566   -4.5634 O.3       1 GTP        -0.8076
     13 O5'         3.0192    0.5132   -2.8246 O.3       1 GTP        -0.5620
     14 C5'         2.2816   -0.2918   -1.9206 C.3       1 GTP         0.1570
     15 C4'         2.7248    0.0226   -0.4980 C.3       1 GTP         0.1395
     16 O4'         2.4697    1.4219   -0.2462 O.3       1 GTP        -0.3978
     17 C3'         1.9404   -0.7419    0.5596 C.3       1 GTP         0.0953
     18 O3'         2.7418   -0.8086    1.7389 O.3       1 GTP        -0.5639
     19 C2'         0.7477    0.1630    0.7858 C.3       1 GTP         0.0640
     20 O2'         0.1373   -0.0577    2.0407 O.3       1 GTP        -0.5724
     21 C1'         1.3733    1.5427    0.6747 C.3       1 GTP         0.4182
     22 N9          0.4520    2.5240    0.1767 N.pl3     1 GTP        -0.4563
     23 C8         -0.8613    2.5511    0.3730 C.ar      1 GTP         0.2386
     24 N7         -1.4346    3.5939   -0.2188 N.pl3     1 GTP        -0.4432
     25 C5         -0.4099    4.2657   -0.8276 C.ar      1 GTP        -0.2050
     26 C6         -0.4554    5.4854   -1.6209 C.ar      1 GTP         0.7599
     27 O6         -1.4907    6.0944   -1.8508 O.2       1 GTP        -0.5606
     28 N1          0.8205    5.8357   -2.0593 N.pl3     1 GTP        -0.5020
     29 C2          1.9890    5.1091   -1.7730 C.ar      1 GTP         0.7674
     30 N2          3.1452    5.6230   -2.2997 N.pl3     1 GTP        -0.9014
     31 N3          1.9765    4.0139   -1.0514 N.2       1 GTP        -0.6718
     32 C4          0.7480    3.6324   -0.6003 C.ar      1 GTP         0.3897
     33 HOG2        5.3253   -2.0173   -0.3445 H         1 GTP         0.5007
     34 HOG3        7.6686   -2.1386   -3.9950 H         1 GTP         0.5007
     35 HOB2        4.6261   -4.2272   -4.7930 H         1 GTP         0.5193
     36 HOA2        0.6824    1.2891   -4.3308 H         1 GTP         0.4890
     37 H5'         1.2150   -0.0785   -2.0448 H         1 GTP         0.0511
     38 H5''        2.4641   -1.3458   -2.1540 H         1 GTP         0.0511
     39 H4'         3.8049   -0.1388   -0.4009 H         1 GTP         0.1554
     40 H3'         1.6783   -1.7629    0.2715 H         1 GTP         0.0796
     41 HO3'        3.5554   -1.2733    1.4914 H         1 GTP         0.4259
     42 H2'        -0.0011    0.0027    0.0003 H         1 GTP         0.0621
     43 HO2'        0.8082    0.1199    2.7232 H         1 GTP         0.4287
     44 H1'         1.7826    1.9024    1.6451 H         1 GTP         0.1525
     45 H8         -1.4050    1.8187    0.9438 H         1 GTP         0.2675
     46 HN1         0.9121    6.6744   -2.6251 H         1 GTP         0.3601
     47 HN21        3.9971    5.1427   -2.1235 H         1 GTP         0.4770
     48 HN22        3.0881    6.4564   -2.8380 H         1 GTP         0.4770
     49 H49        -2.4173    3.8294   -0.2127 H         1 GTP         0.5213
@<TRIPOS>BOND
     1    1    2 2
     2    1    3 1
     3    1    4 1
     4    1    5 1
     5    3   33 1
     6    4   34 1
     7    5    6 1
     8    6    7 2
     9    6    8 1
    10    6    9 1
    11    8   35 1
    12    9   10 1
    13   10   11 2
    14   10   12 1
    15   10   13 1
    16   12   36 1
    17   13   14 1
    18   14   15 1
    19   14   37 1
    20   14   38 1
    21   15   16 1
    22   15   17 1
    23   15   39 1
    24   16   21 1
    25   17   18 1
    26   17   19 1
    27   17   40 1
    28   18   41 1
    29   19   20 1
    30   19   21 1
    31   19   42 1
    32   20   43 1
    33   21   22 1
    34   21   44 1
    35   22   23 ar
    36   22   32 ar
    37   23   24 ar
    38   23   45 1
    39   24   25 ar
    40   24   49 1
    41   25   26 ar
    42   25   32 ar
    43   26   27 2
    44   26   28 ar
    45   28   29 ar
    46   28   46 1
    47   29   30 1
    48   29   31 ar
    49   30   47 1
    50   30   48 1
    51   31   32 ar
@<TRIPOS>SUBSTRUCTURE
     1 GTP         1 GROUP 0 A     ****
@<TRIPOS>MOLECULE
[[5-(2-amino-6-oxo-7,8-dihydro-1~{H}-purin-8-ylium-9-yl)-3,4-dihydroxy-tetrahydrofuran-2-yl]methoxy-hydroxy-phosphoryl] phosphono hydrogen phosphate
   49    51     1     0     0
SMALL
USER_CHARGES

@<TRIPOS>ATOM
      1 PG         -2.8360   -2.4498   -3.2767 P.3       1 GTP         1.7996
      2 O1G        -2.2038   -2.5094   -1.9174 O.2       1 GTP        -0.8112
      3 O2G        -3.2976   -3.8732   -3.8870 O.3       1 GTP        -0.7934
      4 O3G        -4.1732   -1.5470   -3.3733 O.3       1 GTP        -0.7934
      5 O3B        -1.8917   -1.8296   -4.4323 O.3       1 GTP        -0.8067
      6 PB         -0.4555   -2.2895   -5.0121 P.3       1 GTP         1.9429
      7 O1B        -0.4338   -3.6674   -5.6052 O.2       1 GTP        -0.8303
      8 O2B        -0.0461   -1.0970   -6.0238 O.3       1 GTP        -0.7951
      9 O3A         0.5552   -2.0432   -3.7774 O.3       1 GTP        -0.7994
     10 PA          2.1468   -2.2811   -3.6362 P.3       1 GTP         1.7871
     11 O1A         2.5767   -3.7041   -3.8445 O.2       1 GTP        -0.8044
     12 O2A         2.7731   -1.2324   -4.6970 O.3       1 GTP        -0.8076
     13 O5'         2.5234   -1.6624   -2.1893 O.3       1 GTP        -0.5620
     14 C5'         2.2816   -0.2918   -1.9206 C.3       1 GTP         0.1570
     15 C4'         2.7248    0.0226   -0.4980 C.3       1 GTP         0.1395
     16 O4'         2.4697    1.4219   -0.2462 O.3       1 GTP        -0.3978
     17 C3'         1.9404   -0.7419    0.5596 C.3       1 GTP         0.0953
     18 O3'         2.7418   -0.8086    1.7389 O.3       1 GTP        -0.5639
     19 C2'         0.7477    0.1630    0.7858 C.3       1 GTP         0.0640
     20 O2'         0.1373   -0.0577    2.0407 O.3       1 GTP        -0.5724
     21 C1'         1.3733    1.5427    0.6747 C.3       1 GTP         0.4182
     22 N9          0.4520    2.5240    0.1767 N.pl3     1 GTP        -0.4563
     23 C8         -0.3350    3.3125    0.8998 C.ar      1 GTP         0.2386
     24 N7         -1.0716    4.1171    0.1405 N.pl3     1 GTP        -0.4432
     25 C5         -0.7219    3.8110   -1.1464 C.ar      1 GTP        -0.2050
     26 C6         -1.2133    4.3827   -2.3917 C.ar      1 GTP         0.7599
     27 O6         -2.0567    5.2674   -2.4335 O.2       1 GTP        -0.5606
     28 N1         -0.5926    3.7846   -3.4870 N.pl3     1 GTP        -0.5020
     29 C2          0.3749    2.7691   -3.3983 C.ar      1 GTP         0.7674
     30 N2          0.8624    2.3146   -4.5959 N.pl3     1 GTP        -0.9014
     31 N3          0.7851    2.2875   -2.2493 N.2       1 GTP        -0.6718
     32 C4          0.2042    2.8436   -1.1486 C.ar      1 GTP         0.3897
     33 HOG2       -2.6230   -4.5712   -4.0275 H         1 GTP         0.5007
     34 HOG3       -4.9465   -1.7829   -2.8179 H         1 GTP         0.5007
     35 HOB2        0.8443   -1.1082   -6.4351 H         1 GTP         0.5193
     36 HOA2        3.7478   -1.1363   -4.7496 H         1 GTP         0.4890
     37 H5'         2.8429    0.3147   -2.6388 H         1 GTP         0.0511
     38 H5''        1.2125   -0.0898   -2.0417 H         1 GTP         0.0511
     39 H4'         3.8049   -0.1388   -0.4009 H         1 GTP         0.1554
     40 H3'         1.6783   -1.7629    0.2715 H         1 GTP         0.0796
     41 HO3'        2.2232   -1.2979    2.3953 H         1 GTP         0.4259
     42 H2'        -0.0011    0.0027    0.0003 H         1 GTP         0.0621
     43 HO2'       -0.6141    0.5574    2.1082 H         1 GTP         0.4287
     44 H1'         1.7826    1.9024    1.6451 H         1 GTP         0.1525
     45 H8         -0.3766    3.3075    1.9750 H         1 GTP         0.2675
     46 HN1        -0.8580    4.1049   -4.4138 H         1 GTP         0.3601
     47 HN21        1.5490    1.5963   -4.5827 H         1 GTP         0.4770
     48 HN22        0.5109    2.7205   -5.4321 H         1 GTP         0.4770
     49 H49        -1.7420    4.8034    0.4575 H         1 GTP         0.5213
@<TRIPOS>BOND
     1    1    2 2
     2    1    3 1
     3    1    4 1
     4    1    5 1
     5    3   33 1
     6    4   34 1
     7    5    6 1
     8    6    7 2
     9    6    8 1
    10    6    9 1
    11    8   35 1
    12    9   10 1
    13   10   11 2
    14   10   12 1
    15   10   13 1
    16   12   36 1
    17   13   14 1
    18   14   15 1
    19   14   37 1
    20   14   38 1
    21   15   16 1
    22   15   17 1
    23   15   39 1
    24   16   21 1
    25   17   18 1
    26   17   19 1
    27   17   40 1
    28   18   41 1
    29   19   20 1
    30   19   21 1
    31   19   42 1
    32   20   43 1
    33   21   22 1
    34   21   44 1
    35   22   23 ar
    36   22   32 ar
    37   23   24 ar
    38   23   45 1
    39   24   25 ar
    40   24   49 1
    41   25   26 ar
    42   25   32 ar
    43   26   27 2
    44   26   28 ar
    45   28   29 ar
    46   28   46 1
    47   29   30 1
    48   29   31 ar
    49   30   47 1
    50   30   48 1
    51   31   32 ar
@<TRIPOS>SUBSTRUCTURE
     1 GTP         1 GROUP 0 A     ****
@<TRIPOS>MOLECULE
[[5-(2-amino-6-oxo-7,8-dihydro-1~{H}-purin-8-ylium-9-yl)-3,4-dihydroxy-tetrahydrofuran-2-yl]methoxy-hydroxy-phosphoryl] phosphono hydrogen phosphate
   49    51     1     0     0
SMALL
USER_CHARGES

@<TRIPOS>ATOM
      1 PG          2.0047    0.1065   -9.0943 P.3       1 GTP         1.7996
      2 O1G         0.6896    0.5889   -9.6318 O.2       1 GTP        -0.8112
      3 O2G         2.4220   -1.3922   -9.5318 O.3       1 GTP        -0.7934
      4 O3G         3.2872    0.9938   -9.5190 O.3       1 GTP        -0.7934
      5 O3B         2.1015    0.0720   -7.4815 O.3       1 GTP        -0.8067
      6 PB          1.2428   -0.7229   -6.3675 P.3       1 GTP         1.9429
      7 O1B        -0.2233   -0.4043   -6.3649 O.2       1 GTP        -0.8303
      8 O2B         1.6105   -2.2750   -6.6295 O.3       1 GTP        -0.7951
      9 O3A         2.0268   -0.4208   -4.9889 O.3       1 GTP        -0.7994
     10 PA          2.3560    0.9665   -4.2292 P.3       1 GTP         1.7871
     11 O1A         3.1811    1.9277   -5.0346 O.2       1 GTP        -0.8044
     12 O2A         0.8921    1.5216   -3.8219 O.3       1 GTP        -0.8076
     13 O5'         3.0192    0.5132   -2.8246 O.3       1 GTP        -0.5620
     14 C5'         2.2816   -0.2918   -1.9206 C.3       1 GTP         0.1570
     15 C4'         2.7248    0.0226   -0.4980 C.3       1 GTP         0.1395
     16 O4'         2.4697    1.4219   -0.2462 O.3       1 GTP        -0.3978
     17 C3'         1.9404   -0.7419    0.5596 C.3       1 GTP         0.0953
     18 O3'         2.7418   -0.8086    1.7389 O.3       1 GTP        -0.5639
     19 C2'         0.7477    0.1630    0.7858 C.3       1 GTP         0.0640
     20 O2'         0.1373   -0.0577    2.0407 O.3       1 GTP        -0.5724
     21 C1'         1.3733    1.5427    0.6747 C.3       1 GTP         0.4182
     22 N9          0.4520    2.5240    0.1767 N.pl3     1 GTP        -0.4563
     23 C8          0.5671    3.2221   -0.9473 C.ar      1 GTP         0.2386
     24 N7         -0.4560    4.0508   -1.1290 N.pl3     1 GTP        -0.4432
     25 C5         -1.2671    3.8585   -0.0441 C.ar      1 GTP        -0.2050
     26 C6         -2.5318    4.5014    0.2817 C.ar      1 GTP         0.7599
     27 O6         -3.0527    5.3493   -0.4293 O.2       1 GTP        -0.5606
     28 N1         -3.0357    4.0149    1.4868 N.pl3     1 GTP        -0.5020
     29 C2         -2.4069    3.0373    2.2768 C.ar      1 GTP         0.7674
     30 N2         -3.0679    2.6964    3.4278 N.pl3     1 GTP        -0.9014
     31 N3         -1.2653    2.4872    1.9379 N.2       1 GTP        -0.6718
     32 C4         -0.7342    2.9334    0.7643 C.ar      1 GTP         0.3897
     33 HOG2        2.5257   -1.5973  -10.4853 H         1 GTP         0.5007
     34 HOG3        3.5004    1.0949  -10.4711 H         1 GTP         0.5007
     35 HOB2        1.3277   -2.6946   -7.4698 H         1 GTP         0.5193
     36 HOA2        0.2642    1.7695   -4.5334 H         1 GTP         0.4890
     37 H5'         1.2150   -0.0785   -2.0448 H         1 GTP         0.0511
     38 H5''        2.4641   -1.3458   -2.1540 H         1 GTP         0.0511
     39 H4'         3.8049   -0.1388   -0.4009 H         1 GTP         0.1554
     40 H3'         1.6783   -1.7629    0.2715 H         1 GTP         0.0796
     41 HO3'        2.2232   -1.2979    2.3953 H         1 GTP         0.4259
     42 H2'        -0.0011    0.0027    0.0003 H         1 GTP         0.0621
     43 HO2'       -0.1563   -0.9855    2.0596 H         1 GTP         0.4287
     44 H1'         1.7826    1.9024    1.6451 H         1 GTP         0.1525
     45 H8          1.3888    3.1325   -1.6361 H         1 GTP         0.2675
     46 HN1        -3.9188    4.3932    1.8170 H         1 GTP         0.3601
     47 HN21       -2.6609    2.0087    4.0186 H         1 GTP         0.4770
     48 HN22       -3.9293    3.1496    3.6283 H         1 GTP         0.4770
     49 H49        -0.5938    4.6820   -1.9060 H         1 GTP         0.5213
@<TRIPOS>BOND
     1    1    2 2
     2    1    3 1
     3    1    4 1
     4    1    5 1
     5    3   33 1
     6    4   34 1
     7    5    6 1
     8    6    7 2
     9    6    8 1
    10    6    9 1
    11    8   35 1
    12    9   10 1
    13   10   11 2
    14   10   12 1
    15   10   13 1
    16   12   36 1
    17   13   14 1
    18   14   15 1
    19   14   37 1
    20   14   38 1
    21   15   16 1
    22   15   17 1
    23   15   39 1
    24   16   21 1
    25   17   18 1
    26   17   19 1
    27   17   40 1
    28   18   41 1
    29   19   20 1
    30   19   21 1
    31   19   42 1
    32   20   43 1
    33   21   22 1
    34   21   44 1
    35   22   23 ar
    36   22   32 ar
    37   23   24 ar
    38   23   45 1
    39   24   25 ar
    40   24   49 1
    41   25   26 ar
    42   25   32 ar
    43   26   27 2
    44   26   28 ar
    45   28   29 ar
    46   28   46 1
    47   29   30 1
    48   29   31 ar
    49   30   47 1
    50   30   48 1
    51   31   32 ar
@<TRIPOS>SUBSTRUCTURE
     1 GTP         1 GROUP 0 A     ****
@<TRIPOS>MOLECULE
[[5-(2-amino-6-oxo-7,8-dihydro-1~{H}-purin-8-ylium-9-yl)-3,4-dihydroxy-tetrahydrofuran-2-yl]methoxy-hydroxy-phosphoryl] phosphono hydrogen phosphate
   49    51     1     0     0
SMALL
USER_CHARGES

@<TRIPOS>ATOM
      1 PG         -5.0437   -2.4671    4.6222 P.3       1 GTP         1.7996
      2 O1G        -5.0626   -1.4307    3.5375 O.2       1 GTP        -0.8112
      3 O2G        -6.3700   -2.5271    5.5436 O.3       1 GTP        -0.7934
      4 O3G        -4.8696   -3.9912    4.1129 O.3       1 GTP        -0.7934
      5 O3B        -3.8449   -2.3000    5.6930 O.3       1 GTP        -0.8067
      6 PB         -2.2384   -2.3083    5.5215 P.3       1 GTP         1.9429
      7 O1B        -1.7017   -1.2400    4.6150 O.2       1 GTP        -0.8303
      8 O2B        -1.6863   -2.2653    7.0402 O.3       1 GTP        -0.7951
      9 O3A        -1.9052   -3.8271    5.0867 O.3       1 GTP        -0.7994
     10 PA         -0.5052   -4.5581    4.7468 P.3       1 GTP         1.7871
     11 O1A         0.4825   -4.5510    5.8772 O.2       1 GTP        -0.8044
     12 O2A        -0.9647   -6.0344    4.2709 O.3       1 GTP        -0.8076
     13 O5'         0.0092   -3.8406    3.3907 O.3       1 GTP        -0.5620
     14 C5'        -0.7840   -3.8935    2.2172 C.3       1 GTP         0.1570
     15 C4'        -0.0724   -3.1466    1.1027 C.3       1 GTP         0.1395
     16 O4'        -0.8674   -3.1929   -0.0945 O.3       1 GTP        -0.3978
     17 C3'         0.1338   -1.6715    1.4027 C.3       1 GTP         0.0953
     18 O3'         1.2893   -1.4445    2.1808 O.3       1 GTP        -0.5639
     19 C2'         0.2158   -1.0724    0.0128 C.3       1 GTP         0.0640
     20 O2'         1.5141   -1.2448   -0.5513 O.3       1 GTP        -0.5724
     21 C1'        -0.7897   -1.9176   -0.7583 C.3       1 GTP         0.4182
     22 N9         -2.1040   -1.3333   -0.7704 N.pl3     1 GTP        -0.4563
     23 C8         -3.2118   -1.8614   -0.2629 C.ar      1 GTP         0.2386
     24 N7         -4.2667   -1.0708   -0.4324 N.pl3     1 GTP        -0.4432
     25 C5         -3.7861    0.0276   -1.0917 C.ar      1 GTP        -0.2050
     26 C6         -4.4994    1.2163   -1.5358 C.ar      1 GTP         0.7599
     27 O6         -5.6979    1.3818   -1.3572 O.2       1 GTP        -0.5606
     28 N1         -3.6318    2.1024   -2.1721 N.pl3     1 GTP        -0.5020
     29 C2         -2.2571    1.8766   -2.3579 C.ar      1 GTP         0.7674
     30 N2         -1.5798    2.8741   -3.0093 N.pl3     1 GTP        -0.9014
     31 N3         -1.6608    0.7866   -1.9375 N.2       1 GTP        -0.6718
     32 C4         -2.4718   -0.1103   -1.3081 C.ar      1 GTP         0.3897
     33 HOG2       -6.6307   -1.7308    6.0535 H         1 GTP         0.5007
     34 HOG3       -5.5412   -4.3686    3.5057 H         1 GTP         0.5007
     35 HOB2       -1.8483   -1.4636    7.5816 H         1 GTP         0.5193
     36 HOA2       -0.2847   -6.6590    3.9401 H         1 GTP         0.4890
     37 H5'        -0.9361   -4.9413    1.9388 H         1 GTP         0.0511
     38 H5''       -1.7561   -3.4349    2.4251 H         1 GTP         0.0511
     39 H4'         0.8886   -3.6448    0.8780 H         1 GTP         0.1554
     40 H3'        -0.7373   -1.2358    1.9870 H         1 GTP         0.0796
     41 HO3'        1.1626   -1.9325    3.0084 H         1 GTP         0.4259
     42 H2'        -0.0384   -0.0310    0.0096 H         1 GTP         0.0621
     43 HO2'        2.1463   -0.7958    0.0370 H         1 GTP         0.4287
     44 H1'        -0.4769   -2.1002   -1.8093 H         1 GTP         0.1525
     45 H8         -3.2583   -2.8166    0.2303 H         1 GTP         0.2675
     46 HN1        -4.0201    2.9718   -2.5262 H         1 GTP         0.3601
     47 HN21       -0.6049    2.7585   -3.1634 H         1 GTP         0.4770
     48 HN22       -2.0890    3.6755   -3.3029 H         1 GTP         0.4770
     49 H49        -5.2146   -1.2529   -0.1336 H         1 GTP         0.5213
@<TRIPOS>BOND
     1    1    2 2
     2    1    3 1
     3    1    4 1
     4    1    5 1
     5    3   33 1
     6    4   34 1
     7    5    6 1
     8    6    7 2
     9    6    8 1
    10    6    9 1
    11    8   35 1
    12    9   10 1
    13   10   11 2
    14   10   12 1
    15   10   13 1
    16   12   36 1
    17   13   14 1
    18   14   15 1
    19   14   37 1
    20   14   38 1
    21   15   16 1
    22   15   17 1
    23   15   39 1
    24   16   21 1
    25   17   18 1
    26   17   19 1
    27   17   40 1
    28   18   41 1
    29   19   20 1
    30   19   21 1
    31   19   42 1
    32   20   43 1
    33   21   22 1
    34   21   44 1
    35   22   23 ar
    36   22   32 ar
    37   23   24 ar
    38   23   45 1
    39   24   25 ar
    40   24   49 1
    41   25   26 ar
    42   25   32 ar
    43   26   27 2
    44   26   28 ar
    45   28   29 ar
    46   28   46 1
    47   29   30 1
    48   29   31 ar
    49   30   47 1
    50   30   48 1
    51   31   32 ar
@<TRIPOS>SUBSTRUCTURE
     1 GTP         1 GROUP 0 A     ****
@<TRIPOS>MOLECULE
[[5-(2-amino-6-oxo-7,8-dihydro-1~{H}-purin-8-ylium-9-yl)-3,4-dihydroxy-tetrahydrofuran-2-yl]methoxy-hydroxy-phosphoryl] phosphono hydrogen phosphate
   49    51     1     0     0
SMALL
USER_CHARGES

@<TRIPOS>ATOM
      1 PG         -1.1464   -4.8558   -6.2928 P.3       1 GTP         1.7996
      2 O1G        -1.0707   -4.4879   -7.7454 O.2       1 GTP        -0.8112
      3 O2G        -2.6340   -4.8748   -5.6615 O.3       1 GTP        -0.7934
      4 O3G        -0.5616   -6.3166   -5.9229 O.3       1 GTP        -0.7934
      5 O3B        -0.3275   -3.8731   -5.3052 O.3       1 GTP        -0.8067
      6 PB         -0.4555   -2.2895   -5.0121 P.3       1 GTP         1.9429
      7 O1B        -0.2426   -1.4133   -6.2113 O.2       1 GTP        -0.8303
      8 O2B        -1.8987   -2.1429   -4.2987 O.3       1 GTP        -0.7951
      9 O3A         0.5552   -2.0432   -3.7774 O.3       1 GTP        -0.7994
     10 PA          2.1468   -2.2811   -3.6362 P.3       1 GTP         1.7871
     11 O1A         2.5767   -3.7041   -3.8445 O.2       1 GTP        -0.8044
     12 O2A         2.7731   -1.2324   -4.6970 O.3       1 GTP        -0.8076
     13 O5'         2.5234   -1.6624   -2.1893 O.3       1 GTP        -0.5620
     14 C5'         2.2816   -0.2918   -1.9206 C.3       1 GTP         0.1570
     15 C4'         2.7248    0.0226   -0.4980 C.3       1 GTP         0.1395
     16 O4'         2.4697    1.4219   -0.2462 O.3       1 GTP        -0.3978
     17 C3'         1.9404   -0.7419    0.5596 C.3       1 GTP         0.0953
     18 O3'         2.7418   -0.8086    1.7389 O.3       1 GTP        -0.5639
     19 C2'         0.7477    0.1630    0.7858 C.3       1 GTP         0.0640
     20 O2'         0.1373   -0.0577    2.0407 O.3       1 GTP        -0.5724
     21 C1'         1.3733    1.5427    0.6747 C.3       1 GTP         0.4182
     22 N9          0.4520    2.5240    0.1767 N.pl3     1 GTP        -0.4563
     23 C8          0.5671    3.2221   -0.9473 C.ar      1 GTP         0.2386
     24 N7         -0.4560    4.0508   -1.1290 N.pl3     1 GTP        -0.4432
     25 C5         -1.2671    3.8585   -0.0441 C.ar      1 GTP        -0.2050
     26 C6         -2.5318    4.5014    0.2817 C.ar      1 GTP         0.7599
     27 O6         -3.0527    5.3493   -0.4293 O.2       1 GTP        -0.5606
     28 N1         -3.0357    4.0149    1.4868 N.pl3     1 GTP        -0.5020
     29 C2         -2.4069    3.0373    2.2768 C.ar      1 GTP         0.7674
     30 N2         -3.0679    2.6964    3.4278 N.pl3     1 GTP        -0.9014
     31 N3         -1.2653    2.4872    1.9379 N.2       1 GTP        -0.6718
     32 C4         -0.7342    2.9334    0.7643 C.ar      1 GTP         0.3897
     33 HOG2       -3.3035   -5.4828   -6.0411 H         1 GTP         0.5007
     34 HOG3       -0.9653   -7.1086   -6.3374 H         1 GTP         0.5007
     35 HOB2       -2.7072   -2.3393   -4.8183 H         1 GTP         0.5193
     36 HOA2        3.7478   -1.1363   -4.7496 H         1 GTP         0.4890
     37 H5'         2.8429    0.3147   -2.6388 H         1 GTP         0.0511
     38 H5''        1.2125   -0.0898   -2.0417 H         1 GTP         0.0511
     39 H4'         3.8049   -0.1388   -0.4009 H         1 GTP         0.1554
     40 H3'         1.6783   -1.7629    0.2715 H         1 GTP         0.0796
     41 HO3'        2.2232   -1.2979    2.3953 H         1 GTP         0.4259
     42 H2'        -0.0011    0.0027    0.0003 H         1 GTP         0.0621
     43 HO2'       -0.1563   -0.9855    2.0596 H         1 GTP         0.4287
     44 H1'         1.7826    1.9024    1.6451 H         1 GTP         0.1525
     45 H8          1.3888    3.1325   -1.6361 H         1 GTP         0.2675
     46 HN1        -3.9188    4.3932    1.8170 H         1 GTP         0.3601
     47 HN21       -2.6609    2.0087    4.0186 H         1 GTP         0.4770
     48 HN22       -3.9293    3.1496    3.6283 H         1 GTP         0.4770
     49 H49        -0.5938    4.6820   -1.9060 H         1 GTP         0.5213
@<TRIPOS>BOND
     1    1    2 2
     2    1    3 1
     3    1    4 1
     4    1    5 1
     5    3   33 1
     6    4   34 1
     7    5    6 1
     8    6    7 2
     9    6    8 1
    10    6    9 1
    11    8   35 1
    12    9   10 1
    13   10   11 2
    14   10   12 1
    15   10   13 1
    16   12   36 1
    17   13   14 1
    18   14   15 1
    19   14   37 1
    20   14   38 1
    21   15   16 1
    22   15   17 1
    23   15   39 1
    24   16   21 1
    25   17   18 1
    26   17   19 1
    27   17   40 1
    28   18   41 1
    29   19   20 1
    30   19   21 1
    31   19   42 1
    32   20   43 1
    33   21   22 1
    34   21   44 1
    35   22   23 ar
    36   22   32 ar
    37   23   24 ar
    38   23   45 1
    39   24   25 ar
    40   24   49 1
    41   25   26 ar
    42   25   32 ar
    43   26   27 2
    44   26   28 ar
    45   28   29 ar
    46   28   46 1
    47   29   30 1
    48   29   31 ar
    49   30   47 1
    50   30   48 1
    51   31   32 ar
@<TRIPOS>SUBSTRUCTURE
     1 GTP         1 GROUP 0 A     ****
@<TRIPOS>MOLECULE
[[5-(2-amino-6-oxo-7,8-dihydro-1~{H}-purin-8-ylium-9-yl)-3,4-dihydroxy-tetrahydrofuran-2-yl]methoxy-hydroxy-phosphoryl] phosphono hydrogen phosphate
   49    51     1     0     0
SMALL
USER_CHARGES

@<TRIPOS>ATOM
      1 PG          0.8978   -3.6423   -5.5016 P.3       1 GTP         1.7996
      2 O1G         1.4869   -4.6166   -4.5245 O.2       1 GTP        -0.8112
      3 O2G         0.1208   -4.3045   -6.7544 O.3       1 GTP        -0.7934
      4 O3G        -0.1899   -2.6202   -4.8813 O.3       1 GTP        -0.7934
      5 O3B         1.9708   -2.6555   -6.1992 O.3       1 GTP        -0.8067
      6 PB          2.9948   -1.5687   -5.5823 P.3       1 GTP         1.9429
      7 O1B         3.9995   -2.1326   -4.6212 O.2       1 GTP        -0.8303
      8 O2B         3.6187   -0.8414   -6.8842 O.3       1 GTP        -0.7951
      9 O3A         2.0268   -0.4208   -4.9889 O.3       1 GTP        -0.7994
     10 PA          2.3560    0.9665   -4.2292 P.3       1 GTP         1.7871
     11 O1A         3.1811    1.9277   -5.0346 O.2       1 GTP        -0.8044
     12 O2A         0.8921    1.5216   -3.8219 O.3       1 GTP        -0.8076
     13 O5'         3.0192    0.5132   -2.8246 O.3       1 GTP        -0.5620
     14 C5'         2.2816   -0.2918   -1.9206 C.3       1 GTP         0.1570
     15 C4'         2.7248    0.0226   -0.4980 C.3       1 GTP         0.1395
     16 O4'         2.4697    1.4219   -0.2462 O.3       1 GTP        -0.3978
     17 C3'         1.9404   -0.7419    0.5596 C.3       1 GTP         0.0953
     18 O3'         2.7418   -0.8086    1.7389 O.3       1 GTP        -0.5639
     19 C2'         0.7477    0.1630    0.7858 C.3       1 GTP         0.0640
     20 O2'         0.1373   -0.0577    2.0407 O.3       1 GTP        -0.5724
     21 C1'         1.3733    1.5427    0.6747 C.3       1 GTP         0.4182
     22 N9          0.4520    2.5240    0.1767 N.pl3     1 GTP        -0.4563
     23 C8         -0.8613    2.5511    0.3730 C.ar      1 GTP         0.2386
     24 N7         -1.4346    3.5939   -0.2188 N.pl3     1 GTP        -0.4432
     25 C5         -0.4099    4.2657   -0.8276 C.ar      1 GTP        -0.2050
     26 C6         -0.4554    5.4854   -1.6209 C.ar      1 GTP         0.7599
     27 O6         -1.4907    6.0944   -1.8508 O.2       1 GTP        -0.5606
     28 N1          0.8205    5.8357   -2.0593 N.pl3     1 GTP        -0.5020
     29 C2          1.9890    5.1091   -1.7730 C.ar      1 GTP         0.7674
     30 N2          3.1452    5.6230   -2.2997 N.pl3     1 GTP        -0.9014
     31 N3          1.9765    4.0139   -1.0514 N.2       1 GTP        -0.6718
     32 C4          0.7480    3.6324   -0.6003 C.ar      1 GTP         0.3897
     33 HOG2       -0.6521   -4.8833   -6.5820 H         1 GTP         0.5007
     34 HOG3        0.0839   -2.0168   -4.1581 H         1 GTP         0.5007
     35 HOB2        4.2097   -0.0687   -6.7586 H         1 GTP         0.5193
     36 HOA2        0.8281    2.3362   -3.2794 H         1 GTP         0.4890
     37 H5'         1.2150   -0.0785   -2.0448 H         1 GTP         0.0511
     38 H5''        2.4641   -1.3458   -2.1540 H         1 GTP         0.0511
     39 H4'         3.8049   -0.1388   -0.4009 H         1 GTP         0.1554
     40 H3'         1.6783   -1.7629    0.2715 H         1 GTP         0.0796
     41 HO3'        3.5554   -1.2733    1.4914 H         1 GTP         0.4259
     42 H2'        -0.0011    0.0027    0.0003 H         1 GTP         0.0621
     43 HO2'        0.8082    0.1199    2.7232 H         1 GTP         0.4287
     44 H1'         1.7826    1.9024    1.6451 H         1 GTP         0.1525
     45 H8         -1.4050    1.8187    0.9438 H         1 GTP         0.2675
     46 HN1         0.9121    6.6744   -2.6251 H         1 GTP         0.3601
     47 HN21        3.9971    5.1427   -2.1235 H         1 GTP         0.4770
     48 HN22        3.0881    6.4564   -2.8380 H         1 GTP         0.4770
     49 H49        -2.4173    3.8294   -0.2127 H         1 GTP         0.5213
@<TRIPOS>BOND
     1    1    2 2
     2    1    3 1
     3    1    4 1
     4    1    5 1
     5    3   33 1
     6    4   34 1
     7    5    6 1
     8    6    7 2
     9    6    8 1
    10    6    9 1
    11    8   35 1
    12    9   10 1
    13   10   11 2
    14   10   12 1
    15   10   13 1
    16   12   36 1
    17   13   14 1
    18   14   15 1
    19   14   37 1
    20   14   38 1
    21   15   16 1
    22   15   17 1
    23   15   39 1
    24   16   21 1
    25   17   18 1
    26   17   19 1
    27   17   40 1
    28   18   41 1
    29   19   20 1
    30   19   21 1
    31   19   42 1
    32   20   43 1
    33   21   22 1
    34   21   44 1
    35   22   23 ar
    36   22   32 ar
    37   23   24 ar
    38   23   45 1
    39   24   25 ar
    40   24   49 1
    41   25   26 ar
    42   25   32 ar
    43   26   27 2
    44   26   28 ar
    45   28   29 ar
    46   28   46 1
    47   29   30 1
    48   29   31 ar
    49   30   47 1
    50   30   48 1
    51   31   32 ar
@<TRIPOS>SUBSTRUCTURE
     1 GTP         1 GROUP 0 A     ****
@<TRIPOS>MOLECULE
[[5-(2-amino-6-oxo-7,8-dihydro-1~{H}-purin-8-ylium-9-yl)-3,4-dihydroxy-tetrahydrofuran-2-yl]methoxy-hydroxy-phosphoryl] phosphono hydrogen phosphate
   49    51     1     0     0
SMALL
USER_CHARGES

@<TRIPOS>ATOM
      1 PG         -1.3866   -2.3500   -6.6976 P.3       1 GTP         1.7996
      2 O1G        -1.1013   -2.6689   -8.1357 O.2       1 GTP        -0.8112
      3 O2G        -2.5420   -1.2475   -6.4504 O.3       1 GTP        -0.7934
      4 O3G        -1.8645   -3.6048   -5.7976 O.3       1 GTP        -0.7934
      5 O3B        -0.1242   -1.7683   -5.8732 O.3       1 GTP        -0.8067
      6 PB          0.7876   -0.4517   -6.0867 P.3       1 GTP         1.9429
      7 O1B         1.5037   -0.3950   -7.4038 O.2       1 GTP        -0.8303
      8 O2B        -0.2277    0.7732   -5.8006 O.3       1 GTP        -0.7951
      9 O3A         1.7298   -0.4190   -4.7761 O.3       1 GTP        -0.7994
     10 PA          2.8837    0.6137   -4.3156 P.3       1 GTP         1.7871
     11 O1A         4.0324    0.7203   -5.2762 O.2       1 GTP        -0.8044
     12 O2A         2.0739    1.9954   -4.0872 O.3       1 GTP        -0.8076
     13 O5'         3.2876    0.1332   -2.8242 O.3       1 GTP        -0.5620
     14 C5'         2.2816   -0.2918   -1.9206 C.3       1 GTP         0.1570
     15 C4'         2.7248    0.0226   -0.4980 C.3       1 GTP         0.1395
     16 O4'         2.4697    1.4219   -0.2462 O.3       1 GTP        -0.3978
     17 C3'         1.9404   -0.7419    0.5596 C.3       1 GTP         0.0953
     18 O3'         2.7418   -0.8086    1.7389 O.3       1 GTP        -0.5639
     19 C2'         0.7477    0.1630    0.7858 C.3       1 GTP         0.0640
     20 O2'         0.1373   -0.0577    2.0407 O.3       1 GTP        -0.5724
     21 C1'         1.3733    1.5427    0.6747 C.3       1 GTP         0.4182
     22 N9          0.4520    2.5240    0.1767 N.pl3     1 GTP        -0.4563
     23 C8          0.5671    3.2221   -0.9473 C.ar      1 GTP         0.2386
     24 N7         -0.4560    4.0508   -1.1290 N.pl3     1 GTP        -0.4432
     25 C5         -1.2671    3.8585   -0.0441 C.ar      1 GTP        -0.2050
     26 C6         -2.5318    4.5014    0.2817 C.ar      1 GTP         0.7599
     27 O6         -3.0527    5.3493   -0.4293 O.2       1 GTP        -0.5606
     28 N1         -3.0357    4.0149    1.4868 N.pl3     1 GTP        -0.5020
     29 C2         -2.4069    3.0373    2.2768 C.ar      1 GTP         0.7674
     30 N2         -3.0679    2.6964    3.4278 N.pl3     1 GTP        -0.9014
     31 N3         -1.2653    2.4872    1.9379 N.2       1 GTP        -0.6718
     32 C4         -0.7342    2.9334    0.7643 C.ar      1 GTP         0.3897
     33 HOG2       -2.4257   -0.3464   -6.8198 H         1 GTP         0.5007
     34 HOG3       -2.6824   -4.0847   -6.0483 H         1 GTP         0.5007
     35 HOB2        0.1258    1.6879   -5.7805 H         1 GTP         0.5193
     36 HOA2        2.5542    2.7733   -3.7319 H         1 GTP         0.4890
     37 H5'         1.3495    0.2323   -2.1554 H         1 GTP         0.0511
     38 H5''        2.1262   -1.3685   -2.0437 H         1 GTP         0.0511
     39 H4'         3.8049   -0.1388   -0.4009 H         1 GTP         0.1554
     40 H3'         1.6783   -1.7629    0.2715 H         1 GTP         0.0796
     41 HO3'        2.2232   -1.2979    2.3953 H         1 GTP         0.4259
     42 H2'        -0.0011    0.0027    0.0003 H         1 GTP         0.0621
     43 HO2'       -0.1563   -0.9855    2.0596 H         1 GTP         0.4287
     44 H1'         1.7826    1.9024    1.6451 H         1 GTP         0.1525
     45 H8          1.3888    3.1325   -1.6361 H         1 GTP         0.2675
     46 HN1        -3.9188    4.3932    1.8170 H         1 GTP         0.3601
     47 HN21       -2.6609    2.0087    4.0186 H         1 GTP         0.4770
     48 HN22       -3.9293    3.1496    3.6283 H         1 GTP         0.4770
     49 H49        -0.5938    4.6820   -1.9060 H         1 GTP         0.5213
@<TRIPOS>BOND
     1    1    2 2
     2    1    3 1
     3    1    4 1
     4    1    5 1
     5    3   33 1
     6    4   34 1
     7    5    6 1
     8    6    7 2
     9    6    8 1
    10    6    9 1
    11    8   35 1
    12    9   10 1
    13   10   11 2
    14   10   12 1
    15   10   13 1
    16   12   36 1
    17   13   14 1
    18   14   15 1
    19   14   37 1
    20   14   38 1
    21   15   16 1
    22   15   17 1
    23   15   39 1
    24   16   21 1
    25   17   18 1
    26   17   19 1
    27   17   40 1
    28   18   41 1
    29   19   20 1
    30   19   21 1
    31   19   42 1
    32   20   43 1
    33   21   22 1
    34   21   44 1
    35   22   23 ar
    36   22   32 ar
    37   23   24 ar
    38   23   45 1
    39   24   25 ar
    40   24   49 1
    41   25   26 ar
    42   25   32 ar
    43   26   27 2
    44   26   28 ar
    45   28   29 ar
    46   28   46 1
    47   29   30 1
    48   29   31 ar
    49   30   47 1
    50   30   48 1
    51   31   32 ar
@<TRIPOS>SUBSTRUCTURE
     1 GTP         1 GROUP 0 A     ****
@<TRIPOS>MOLECULE
[[5-(2-amino-6-oxo-7,8-dihydro-1~{H}-purin-8-ylium-9-yl)-3,4-dihydroxy-tetrahydrofuran-2-yl]methoxy-hydroxy-phosphoryl] phosphono hydrogen phosphate
   49    51     1     0     0
SMALL
USER_CHARGES

@<TRIPOS>ATOM
      1 PG         -2.6489   -0.1916   -5.9445 P.3       1 GTP         1.7996
      2 O1G        -3.4824   -1.2764   -6.5605 O.2       1 GTP        -0.8112
      3 O2G        -1.9331    0.8091   -6.9924 O.3       1 GTP        -0.7934
      4 O3G        -3.4447    0.8070   -4.9535 O.3       1 GTP        -0.7934
      5 O3B        -1.4267   -0.7191   -5.0281 O.3       1 GTP        -0.8067
      6 PB         -0.1471   -1.6450   -5.3680 P.3       1 GTP         1.9429
      7 O1B        -0.4853   -3.0179   -5.8695 O.2       1 GTP        -0.8303
      8 O2B         0.7297   -0.7383   -6.3790 O.3       1 GTP        -0.7951
      9 O3A         0.7366   -1.5914   -4.0178 O.3       1 GTP        -0.7994
     10 PA          2.1468   -2.2811   -3.6362 P.3       1 GTP         1.7871
     11 O1A         2.1340   -3.7809   -3.6965 O.2       1 GTP        -0.8044
     12 O2A         3.1891   -1.5809   -4.6563 O.3       1 GTP        -0.8076
     13 O5'         2.5234   -1.6624   -2.1893 O.3       1 GTP        -0.5620
     14 C5'         2.2816   -0.2918   -1.9206 C.3       1 GTP         0.1570
     15 C4'         2.7248    0.0226   -0.4980 C.3       1 GTP         0.1395
     16 O4'         2.4697    1.4219   -0.2462 O.3       1 GTP        -0.3978
     17 C3'         1.9404   -0.7419    0.5596 C.3       1 GTP         0.0953
     18 O3'         2.7418   -0.8086    1.7389 O.3       1 GTP        -0.5639
     19 C2'         0.7477    0.1630    0.7858 C.3       1 GTP         0.0640
     20 O2'         0.1373   -0.0577    2.0407 O.3       1 GTP        -0.5724
     21 C1'         1.3733    1.5427    0.6747 C.3       1 GTP         0.4182
     22 N9          0.4520    2.5240    0.1767 N.pl3     1 GTP        -0.4563
     23 C8         -0.3350    3.3125    0.8998 C.ar      1 GTP         0.2386
     24 N7         -1.0716    4.1171    0.1405 N.pl3     1 GTP        -0.4432
     25 C5         -0.7219    3.8110   -1.1464 C.ar      1 GTP        -0.2050
     26 C6         -1.2133    4.3827   -2.3917 C.ar      1 GTP         0.7599
     27 O6         -2.0567    5.2674   -2.4335 O.2       1 GTP        -0.5606
     28 N1         -0.5926    3.7846   -3.4870 N.pl3     1 GTP        -0.5020
     29 C2          0.3749    2.7691   -3.3983 C.ar      1 GTP         0.7674
     30 N2          0.8624    2.3146   -4.5959 N.pl3     1 GTP        -0.9014
     31 N3          0.7851    2.2875   -2.2493 N.2       1 GTP        -0.6718
     32 C4          0.2042    2.8436   -1.1486 C.ar      1 GTP         0.3897
     33 HOG2       -2.4909    1.3314   -7.6074 H         1 GTP         0.5007
     34 HOG3       -4.1967    1.3277   -5.3077 H         1 GTP         0.5007
     35 HOB2        1.6145   -1.0576   -6.6571 H         1 GTP         0.5193
     36 HOA2        4.1443   -1.7879   -4.5743 H         1 GTP         0.4890
     37 H5'         2.8429    0.3147   -2.6388 H         1 GTP         0.0511
     38 H5''        1.2125   -0.0898   -2.0417 H         1 GTP         0.0511
     39 H4'         3.8049   -0.1388   -0.4009 H         1 GTP         0.1554
     40 H3'         1.6783   -1.7629    0.2715 H         1 GTP         0.0796
     41 HO3'        2.2232   -1.2979    2.3953 H         1 GTP         0.4259
     42 H2'        -0.0011    0.0027    0.0003 H         1 GTP         0.0621
     43 HO2'       -0.1563   -0.9855    2.0596 H         1 GTP         0.4287
     44 H1'         1.7826    1.9024    1.6451 H         1 GTP         0.1525
     45 H8         -0.3766    3.3075    1.9750 H         1 GTP         0.2675
     46 HN1        -0.8580    4.1049   -4.4138 H         1 GTP         0.3601
     47 HN21        1.5490    1.5963   -4.5827 H         1 GTP         0.4770
     48 HN22        0.5109    2.7205   -5.4321 H         1 GTP         0.4770
     49 H49        -1.7420    4.8034    0.4575 H         1 GTP         0.5213
@<TRIPOS>BOND
     1    1    2 2
     2    1    3 1
     3    1    4 1
     4    1    5 1
     5    3   33 1
     6    4   34 1
     7    5    6 1
     8    6    7 2
     9    6    8 1
    10    6    9 1
    11    8   35 1
    12    9   10 1
    13   10   11 2
    14   10   12 1
    15   10   13 1
    16   12   36 1
    17   13   14 1
    18   14   15 1
    19   14   37 1
    20   14   38 1
    21   15   16 1
    22   15   17 1
    23   15   39 1
    24   16   21 1
    25   17   18 1
    26   17   19 1
    27   17   40 1
    28   18   41 1
    29   19   20 1
    30   19   21 1
    31   19   42 1
    32   20   43 1
    33   21   22 1
    34   21   44 1
    35   22   23 ar
    36   22   32 ar
    37   23   24 ar
    38   23   45 1
    39   24   25 ar
    40   24   49 1
    41   25   26 ar
    42   25   32 ar
    43   26   27 2
    44   26   28 ar
    45   28   29 ar
    46   28   46 1
    47   29   30 1
    48   29   31 ar
    49   30   47 1
    50   30   48 1
    51   31   32 ar
@<TRIPOS>SUBSTRUCTURE
     1 GTP         1 GROUP 0 A     ****
@<TRIPOS>MOLECULE
[[5-(2-amino-6-oxo-7,8-dihydro-1~{H}-purin-8-ylium-9-yl)-3,4-dihydroxy-tetrahydrofuran-2-yl]methoxy-hydroxy-phosphoryl] phosphono hydrogen phosphate
   49    51     1     0     0
SMALL
USER_CHARGES

@<TRIPOS>ATOM
      1 PG          5.2303   -3.7157   -1.8303 P.3       1 GTP         1.7996
      2 O1G         6.6535   -3.9146   -2.2615 O.2       1 GTP        -0.8112
      3 O2G         4.3446   -5.0635   -1.7278 O.3       1 GTP        -0.7934
      4 O3G         5.0418   -3.0298   -0.3789 O.3       1 GTP        -0.7934
      5 O3B         4.3591   -2.7619   -2.8015 O.3       1 GTP        -0.8067
      6 PB          3.9719   -2.8827   -4.3653 P.3       1 GTP         1.9429
      7 O1B         5.1461   -2.9163   -5.2986 O.2       1 GTP        -0.8303
      8 O2B         3.0055   -4.1772   -4.4264 O.3       1 GTP        -0.7951
      9 O3A         2.9276   -1.6737   -4.5982 O.3       1 GTP        -0.7994
     10 PA          3.0852   -0.0762   -4.4159 P.3       1 GTP         1.7871
     11 O1A         4.1533    0.5381   -5.2733 O.2       1 GTP        -0.8044
     12 O2A         1.5937    0.4784   -4.7077 O.3       1 GTP        -0.8076
     13 O5'         3.2876    0.1332   -2.8242 O.3       1 GTP        -0.5620
     14 C5'         2.2816   -0.2918   -1.9206 C.3       1 GTP         0.1570
     15 C4'         2.7248    0.0226   -0.4980 C.3       1 GTP         0.1395
     16 O4'         2.4697    1.4219   -0.2462 O.3       1 GTP        -0.3978
     17 C3'         1.9404   -0.7419    0.5596 C.3       1 GTP         0.0953
     18 O3'         2.7418   -0.8086    1.7389 O.3       1 GTP        -0.5639
     19 C2'         0.7477    0.1630    0.7858 C.3       1 GTP         0.0640
     20 O2'         0.1373   -0.0577    2.0407 O.3       1 GTP        -0.5724
     21 C1'         1.3733    1.5427    0.6747 C.3       1 GTP         0.4182
     22 N9          0.4520    2.5240    0.1767 N.pl3     1 GTP        -0.4563
     23 C8         -0.8613    2.5511    0.3730 C.ar      1 GTP         0.2386
     24 N7         -1.4346    3.5939   -0.2188 N.pl3     1 GTP        -0.4432
     25 C5         -0.4099    4.2657   -0.8276 C.ar      1 GTP        -0.2050
     26 C6         -0.4554    5.4854   -1.6209 C.ar      1 GTP         0.7599
     27 O6         -1.4907    6.0944   -1.8508 O.2       1 GTP        -0.5606
     28 N1          0.8205    5.8357   -2.0593 N.pl3     1 GTP        -0.5020
     29 C2          1.9890    5.1091   -1.7730 C.ar      1 GTP         0.7674
     30 N2          3.1452    5.6230   -2.2997 N.pl3     1 GTP        -0.9014
     31 N3          1.9765    4.0139   -1.0514 N.2       1 GTP        -0.6718
     32 C4          0.7480    3.6324   -0.6003 C.ar      1 GTP         0.3897
     33 HOG2        4.6271   -5.7719   -1.1111 H         1 GTP         0.5007
     34 HOG3        5.4103   -2.1338   -0.2257 H         1 GTP         0.5007
     35 HOB2        3.3808   -5.0598   -4.2211 H         1 GTP         0.5193
     36 HOA2        1.4122    1.4351   -4.5904 H         1 GTP         0.4890
     37 H5'         1.3495    0.2323   -2.1554 H         1 GTP         0.0511
     38 H5''        2.1262   -1.3685   -2.0437 H         1 GTP         0.0511
     39 H4'         3.8049   -0.1388   -0.4009 H         1 GTP         0.1554
     40 H3'         1.6783   -1.7629    0.2715 H         1 GTP         0.0796
     41 HO3'        3.5554   -1.2733    1.4914 H         1 GTP         0.4259
     42 H2'        -0.0011    0.0027    0.0003 H         1 GTP         0.0621
     43 HO2'        0.8082    0.1199    2.7232 H         1 GTP         0.4287
     44 H1'         1.7826    1.9024    1.6451 H         1 GTP         0.1525
     45 H8         -1.4050    1.8187    0.9438 H         1 GTP         0.2675
     46 HN1         0.9121    6.6744   -2.6251 H         1 GTP         0.3601
     47 HN21        3.9971    5.1427   -2.1235 H         1 GTP         0.4770
     48 HN22        3.0881    6.4564   -2.8380 H         1 GTP         0.4770
     49 H49        -2.4173    3.8294   -0.2127 H         1 GTP         0.5213
@<TRIPOS>BOND
     1    1    2 2
     2    1    3 1
     3    1    4 1
     4    1    5 1
     5    3   33 1
     6    4   34 1
     7    5    6 1
     8    6    7 2
     9    6    8 1
    10    6    9 1
    11    8   35 1
    12    9   10 1
    13   10   11 2
    14   10   12 1
    15   10   13 1
    16   12   36 1
    17   13   14 1
    18   14   15 1
    19   14   37 1
    20   14   38 1
    21   15   16 1
    22   15   17 1
    23   15   39 1
    24   16   21 1
    25   17   18 1
    26   17   19 1
    27   17   40 1
    28   18   41 1
    29   19   20 1
    30   19   21 1
    31   19   42 1
    32   20   43 1
    33   21   22 1
    34   21   44 1
    35   22   23 ar
    36   22   32 ar
    37   23   24 ar
    38   23   45 1
    39   24   25 ar
    40   24   49 1
    41   25   26 ar
    42   25   32 ar
    43   26   27 2
    44   26   28 ar
    45   28   29 ar
    46   28   46 1
    47   29   30 1
    48   29   31 ar
    49   30   47 1
    50   30   48 1
    51   31   32 ar
@<TRIPOS>SUBSTRUCTURE
     1 GTP         1 GROUP 0 A     ****
@<TRIPOS>MOLECULE
[[5-(2-amino-6-oxo-7,8-dihydro-1~{H}-purin-8-ylium-9-yl)-3,4-dihydroxy-tetrahydrofuran-2-yl]methoxy-hydroxy-phosphoryl] phosphono hydrogen phosphate
   49    51     1     0     0
SMALL
USER_CHARGES

@<TRIPOS>ATOM
      1 PG          4.1291   -2.8600   -8.3773 P.3       1 GTP         1.7996
      2 O1G         4.4473   -4.3260   -8.3538 O.2       1 GTP        -0.8112
      3 O2G         5.3182   -1.9034   -8.9089 O.3       1 GTP        -0.7934
      4 O3G         2.8700   -2.4452   -9.3022 O.3       1 GTP        -0.7934
      5 O3B         3.7494   -2.2297   -6.9385 O.3       1 GTP        -0.8067
      6 PB          2.5668   -2.5700   -5.8916 P.3       1 GTP         1.9429
      7 O1B         1.1802   -2.3952   -6.4374 O.2       1 GTP        -0.8303
      8 O2B         2.9221   -4.0605   -5.3766 O.3       1 GTP        -0.7951
      9 O3A         2.9276   -1.6737   -4.5982 O.3       1 GTP        -0.7994
     10 PA          3.0852   -0.0762   -4.4159 P.3       1 GTP         1.7871
     11 O1A         4.1533    0.5381   -5.2733 O.2       1 GTP        -0.8044
     12 O2A         1.5937    0.4784   -4.7077 O.3       1 GTP        -0.8076
     13 O5'         3.2876    0.1332   -2.8242 O.3       1 GTP        -0.5620
     14 C5'         2.2816   -0.2918   -1.9206 C.3       1 GTP         0.1570
     15 C4'         2.7248    0.0226   -0.4980 C.3       1 GTP         0.1395
     16 O4'         2.4697    1.4219   -0.2462 O.3       1 GTP        -0.3978
     17 C3'         1.9404   -0.7419    0.5596 C.3       1 GTP         0.0953
     18 O3'         2.7418   -0.8086    1.7389 O.3       1 GTP        -0.5639
     19 C2'         0.7477    0.1630    0.7858 C.3       1 GTP         0.0640
     20 O2'         0.1373   -0.0577    2.0407 O.3       1 GTP        -0.5724
     21 C1'         1.3733    1.5427    0.6747 C.3       1 GTP         0.4182
     22 N9          0.4520    2.5240    0.1767 N.pl3     1 GTP        -0.4563
     23 C8          0.5671    3.2221   -0.9473 C.ar      1 GTP         0.2386
     24 N7         -0.4560    4.0508   -1.1290 N.pl3     1 GTP        -0.4432
     25 C5         -1.2671    3.8585   -0.0441 C.ar      1 GTP        -0.2050
     26 C6         -2.5318    4.5014    0.2817 C.ar      1 GTP         0.7599
     27 O6         -3.0527    5.3493   -0.4293 O.2       1 GTP        -0.5606
     28 N1         -3.0357    4.0149    1.4868 N.pl3     1 GTP        -0.5020
     29 C2         -2.4069    3.0373    2.2768 C.ar      1 GTP         0.7674
     30 N2         -3.0679    2.6964    3.4278 N.pl3     1 GTP        -0.9014
     31 N3         -1.2653    2.4872    1.9379 N.2       1 GTP        -0.6718
     32 C4         -0.7342    2.9334    0.7643 C.ar      1 GTP         0.3897
     33 HOG2        6.1743   -1.8989   -8.4303 H         1 GTP         0.5007
     34 HOG3        1.9880   -2.8245   -9.1014 H         1 GTP         0.5007
     35 HOB2        2.3872   -4.4532   -4.6543 H         1 GTP         0.5193
     36 HOA2        1.2130    0.3658   -5.6046 H         1 GTP         0.4890
     37 H5'         1.3495    0.2323   -2.1554 H         1 GTP         0.0511
     38 H5''        2.1262   -1.3685   -2.0437 H         1 GTP         0.0511
     39 H4'         3.8049   -0.1388   -0.4009 H         1 GTP         0.1554
     40 H3'         1.6783   -1.7629    0.2715 H         1 GTP         0.0796
     41 HO3'        3.5554   -1.2733    1.4914 H         1 GTP         0.4259
     42 H2'        -0.0011    0.0027    0.0003 H         1 GTP         0.0621
     43 HO2'       -0.1563   -0.9855    2.0596 H         1 GTP         0.4287
     44 H1'         1.7826    1.9024    1.6451 H         1 GTP         0.1525
     45 H8          1.3888    3.1325   -1.6361 H         1 GTP         0.2675
     46 HN1        -3.9188    4.3932    1.8170 H         1 GTP         0.3601
     47 HN21       -2.6609    2.0087    4.0186 H         1 GTP         0.4770
     48 HN22       -3.9293    3.1496    3.6283 H         1 GTP         0.4770
     49 H49        -0.5938    4.6820   -1.9060 H         1 GTP         0.5213
@<TRIPOS>BOND
     1    1    2 2
     2    1    3 1
     3    1    4 1
     4    1    5 1
     5    3   33 1
     6    4   34 1
     7    5    6 1
     8    6    7 2
     9    6    8 1
    10    6    9 1
    11    8   35 1
    12    9   10 1
    13   10   11 2
    14   10   12 1
    15   10   13 1
    16   12   36 1
    17   13   14 1
    18   14   15 1
    19   14   37 1
    20   14   38 1
    21   15   16 1
    22   15   17 1
    23   15   39 1
    24   16   21 1
    25   17   18 1
    26   17   19 1
    27   17   40 1
    28   18   41 1
    29   19   20 1
    30   19   21 1
    31   19   42 1
    32   20   43 1
    33   21   22 1
    34   21   44 1
    35   22   23 ar
    36   22   32 ar
    37   23   24 ar
    38   23   45 1
    39   24   25 ar
    40   24   49 1
    41   25   26 ar
    42   25   32 ar
    43   26   27 2
    44   26   28 ar
    45   28   29 ar
    46   28   46 1
    47   29   30 1
    48   29   31 ar
    49   30   47 1
    50   30   48 1
    51   31   32 ar
@<TRIPOS>SUBSTRUCTURE
     1 GTP         1 GROUP 0 A     ****
@<TRIPOS>MOLECULE
[[5-(2-amino-6-oxo-7,8-dihydro-1~{H}-purin-8-ylium-9-yl)-3,4-dihydroxy-tetrahydrofuran-2-yl]methoxy-hydroxy-phosphoryl] phosphono hydrogen phosphate
   49    51     1     0     0
SMALL
USER_CHARGES

@<TRIPOS>ATOM
      1 PG          0.4605   -4.9457   -5.8623 P.3       1 GTP         1.7996
      2 O1G        -0.8975   -4.5693   -6.3774 O.2       1 GTP        -0.8112
      3 O2G         0.4723   -6.0731   -4.7046 O.3       1 GTP        -0.7934
      4 O3G         1.4770   -5.5350   -6.9723 O.3       1 GTP        -0.7934
      5 O3B         1.2966   -3.7251   -5.2120 O.3       1 GTP        -0.8067
      6 PB          1.8105   -2.3227   -5.8280 P.3       1 GTP         1.9429
      7 O1B         2.7399   -2.4578   -6.9980 O.2       1 GTP        -0.8303
      8 O2B         0.4470   -1.5055   -6.1214 O.3       1 GTP        -0.7951
      9 O3A         2.4047   -1.5353   -4.5499 O.3       1 GTP        -0.7994
     10 PA          3.0852   -0.0762   -4.4159 P.3       1 GTP         1.7871
     11 O1A         4.3287    0.1001   -5.2380 O.2       1 GTP        -0.8044
     12 O2A         1.8801    0.9311   -4.8037 O.3       1 GTP        -0.8076
     13 O5'         3.2876    0.1332   -2.8242 O.3       1 GTP        -0.5620
     14 C5'         2.2816   -0.2918   -1.9206 C.3       1 GTP         0.1570
     15 C4'         2.7248    0.0226   -0.4980 C.3       1 GTP         0.1395
     16 O4'         2.4697    1.4219   -0.2462 O.3       1 GTP        -0.3978
     17 C3'         1.9404   -0.7419    0.5596 C.3       1 GTP         0.0953
     18 O3'         2.7418   -0.8086    1.7389 O.3       1 GTP        -0.5639
     19 C2'         0.7477    0.1630    0.7858 C.3       1 GTP         0.0640
     20 O2'         0.1373   -0.0577    2.0407 O.3       1 GTP        -0.5724
     21 C1'         1.3733    1.5427    0.6747 C.3       1 GTP         0.4182
     22 N9          0.4520    2.5240    0.1767 N.pl3     1 GTP        -0.4563
     23 C8         -0.2009    2.4849   -0.9792 C.ar      1 GTP         0.2386
     24 N7         -0.9840    3.5454   -1.1481 N.pl3     1 GTP        -0.4432
     25 C5         -0.8090    4.3005   -0.0206 C.ar      1 GTP        -0.2050
     26 C6         -1.4206    5.5724    0.3362 C.ar      1 GTP         0.7599
     27 O6         -2.2199    6.1544   -0.3836 O.2       1 GTP        -0.5606
     28 N1         -0.9680    6.0043    1.5817 N.pl3     1 GTP        -0.5020
     29 C2         -0.0474    5.3055    2.3814 C.ar      1 GTP         0.7674
     30 N2          0.2680    5.9024    3.5740 N.pl3     1 GTP        -0.9014
     31 N3          0.4755    4.1601    2.0138 N.2       1 GTP        -0.6718
     32 C4          0.0611    3.6981    0.8001 C.ar      1 GTP         0.3897
     33 HOG2       -0.0015   -5.8961   -3.8642 H         1 GTP         0.5007
     34 HOG3        1.7174   -4.9750   -7.7409 H         1 GTP         0.5007
     35 HOB2        0.5073   -0.5729   -6.4194 H         1 GTP         0.5193
     36 HOA2        2.0279    1.8978   -4.7296 H         1 GTP         0.4890
     37 H5'         1.3495    0.2323   -2.1554 H         1 GTP         0.0511
     38 H5''        2.1262   -1.3685   -2.0437 H         1 GTP         0.0511
     39 H4'         3.8049   -0.1388   -0.4009 H         1 GTP         0.1554
     40 H3'         1.6783   -1.7629    0.2715 H         1 GTP         0.0796
     41 HO3'        2.2232   -1.2979    2.3953 H         1 GTP         0.4259
     42 H2'        -0.0011    0.0027    0.0003 H         1 GTP         0.0621
     43 HO2'       -0.1563   -0.9855    2.0596 H         1 GTP         0.4287
     44 H1'         1.7826    1.9024    1.6451 H         1 GTP         0.1525
     45 H8         -0.1126    1.6906   -1.6997 H         1 GTP         0.2675
     46 HN1        -1.3285    6.8855    1.9361 H         1 GTP         0.3601
     47 HN21        0.9153    5.4446    4.1732 H         1 GTP         0.4770
     48 HN22       -0.1624    6.7706    3.7948 H         1 GTP         0.4770
     49 H49        -1.5768    3.7405   -1.9429 H         1 GTP         0.5213
@<TRIPOS>BOND
     1    1    2 2
     2    1    3 1
     3    1    4 1
     4    1    5 1
     5    3   33 1
     6    4   34 1
     7    5    6 1
     8    6    7 2
     9    6    8 1
    10    6    9 1
    11    8   35 1
    12    9   10 1
    13   10   11 2
    14   10   12 1
    15   10   13 1
    16   12   36 1
    17   13   14 1
    18   14   15 1
    19   14   37 1
    20   14   38 1
    21   15   16 1
    22   15   17 1
    23   15   39 1
    24   16   21 1
    25   17   18 1
    26   17   19 1
    27   17   40 1
    28   18   41 1
    29   19   20 1
    30   19   21 1
    31   19   42 1
    32   20   43 1
    33   21   22 1
    34   21   44 1
    35   22   23 ar
    36   22   32 ar
    37   23   24 ar
    38   23   45 1
    39   24   25 ar
    40   24   49 1
    41   25   26 ar
    42   25   32 ar
    43   26   27 2
    44   26   28 ar
    45   28   29 ar
    46   28   46 1
    47   29   30 1
    48   29   31 ar
    49   30   47 1
    50   30   48 1
    51   31   32 ar
@<TRIPOS>SUBSTRUCTURE
     1 GTP         1 GROUP 0 A     ****
@<TRIPOS>MOLECULE
[[5-(2-amino-6-oxo-7,8-dihydro-1~{H}-purin-8-ylium-9-yl)-3,4-dihydroxy-tetrahydrofuran-2-yl]methoxy-hydroxy-phosphoryl] phosphono hydrogen phosphate
   49    51     1     0     0
SMALL
USER_CHARGES

@<TRIPOS>ATOM
      1 PG         -3.3340   -1.6555   -5.1403 P.3       1 GTP         1.7996
      2 O1G        -3.3645   -0.6582   -6.2609 O.2       1 GTP        -0.8112
      3 O2G        -4.3271   -1.3381   -3.9056 O.3       1 GTP        -0.7934
      4 O3G        -3.7221   -3.1684   -5.5566 O.3       1 GTP        -0.7934
      5 O3B        -1.8917   -1.8296   -4.4323 O.3       1 GTP        -0.8067
      6 PB         -0.4555   -2.2895   -5.0121 P.3       1 GTP         1.9429
      7 O1B        -0.4338   -3.6674   -5.6052 O.2       1 GTP        -0.8303
      8 O2B        -0.0461   -1.0970   -6.0238 O.3       1 GTP        -0.7951
      9 O3A         0.5552   -2.0432   -3.7774 O.3       1 GTP        -0.7994
     10 PA          2.1468   -2.2811   -3.6362 P.3       1 GTP         1.7871
     11 O1A         2.5767   -3.7041   -3.8445 O.2       1 GTP        -0.8044
     12 O2A         2.7731   -1.2324   -4.6970 O.3       1 GTP        -0.8076
     13 O5'         2.5234   -1.6624   -2.1893 O.3       1 GTP        -0.5620
     14 C5'         2.2816   -0.2918   -1.9206 C.3       1 GTP         0.1570
     15 C4'         2.7248    0.0226   -0.4980 C.3       1 GTP         0.1395
     16 O4'         2.4697    1.4219   -0.2462 O.3       1 GTP        -0.3978
     17 C3'         1.9404   -0.7419    0.5596 C.3       1 GTP         0.0953
     18 O3'         2.7418   -0.8086    1.7389 O.3       1 GTP        -0.5639
     19 C2'         0.7477    0.1630    0.7858 C.3       1 GTP         0.0640
     20 O2'         0.1373   -0.0577    2.0407 O.3       1 GTP        -0.5724
     21 C1'         1.3733    1.5427    0.6747 C.3       1 GTP         0.4182
     22 N9          0.4520    2.5240    0.1767 N.pl3     1 GTP        -0.4563
     23 C8          0.5671    3.2221   -0.9473 C.ar      1 GTP         0.2386
     24 N7         -0.4560    4.0508   -1.1290 N.pl3     1 GTP        -0.4432
     25 C5         -1.2671    3.8585   -0.0441 C.ar      1 GTP        -0.2050
     26 C6         -2.5318    4.5014    0.2817 C.ar      1 GTP         0.7599
     27 O6         -3.0527    5.3493   -0.4293 O.2       1 GTP        -0.5606
     28 N1         -3.0357    4.0149    1.4868 N.pl3     1 GTP        -0.5020
     29 C2         -2.4069    3.0373    2.2768 C.ar      1 GTP         0.7674
     30 N2         -3.0679    2.6964    3.4278 N.pl3     1 GTP        -0.9014
     31 N3         -1.2653    2.4872    1.9379 N.2       1 GTP        -0.6718
     32 C4         -0.7342    2.9334    0.7643 C.ar      1 GTP         0.3897
     33 HOG2       -4.2154   -0.4994   -3.4095 H         1 GTP         0.5007
     34 HOG3       -3.1796   -3.6292   -6.2315 H         1 GTP         0.5007
     35 HOB2        0.8443   -1.1082   -6.4351 H         1 GTP         0.5193
     36 HOA2        3.7478   -1.1363   -4.7496 H         1 GTP         0.4890
     37 H5'         2.8429    0.3147   -2.6388 H         1 GTP         0.0511
     38 H5''        1.2125   -0.0898   -2.0417 H         1 GTP         0.0511
     39 H4'         3.8049   -0.1388   -0.4009 H         1 GTP         0.1554
     40 H3'         1.6783   -1.7629    0.2715 H         1 GTP         0.0796
     41 HO3'        2.2232   -1.2979    2.3953 H         1 GTP         0.4259
     42 H2'        -0.0011    0.0027    0.0003 H         1 GTP         0.0621
     43 HO2'       -0.1563   -0.9855    2.0596 H         1 GTP         0.4287
     44 H1'         1.7826    1.9024    1.6451 H         1 GTP         0.1525
     45 H8          1.3888    3.1325   -1.6361 H         1 GTP         0.2675
     46 HN1        -3.9188    4.3932    1.8170 H         1 GTP         0.3601
     47 HN21       -2.6609    2.0087    4.0186 H         1 GTP         0.4770
     48 HN22       -3.9293    3.1496    3.6283 H         1 GTP         0.4770
     49 H49        -0.5938    4.6820   -1.9060 H         1 GTP         0.5213
@<TRIPOS>BOND
     1    1    2 2
     2    1    3 1
     3    1    4 1
     4    1    5 1
     5    3   33 1
     6    4   34 1
     7    5    6 1
     8    6    7 2
     9    6    8 1
    10    6    9 1
    11    8   35 1
    12    9   10 1
    13   10   11 2
    14   10   12 1
    15   10   13 1
    16   12   36 1
    17   13   14 1
    18   14   15 1
    19   14   37 1
    20   14   38 1
    21   15   16 1
    22   15   17 1
    23   15   39 1
    24   16   21 1
    25   17   18 1
    26   17   19 1
    27   17   40 1
    28   18   41 1
    29   19   20 1
    30   19   21 1
    31   19   42 1
    32   20   43 1
    33   21   22 1
    34   21   44 1
    35   22   23 ar
    36   22   32 ar
    37   23   24 ar
    38   23   45 1
    39   24   25 ar
    40   24   49 1
    41   25   26 ar
    42   25   32 ar
    43   26   27 2
    44   26   28 ar
    45   28   29 ar
    46   28   46 1
    47   29   30 1
    48   29   31 ar
    49   30   47 1
    50   30   48 1
    51   31   32 ar
@<TRIPOS>SUBSTRUCTURE
     1 GTP         1 GROUP 0 A     ****
@<TRIPOS>MOLECULE
[[5-(2-amino-6-oxo-7,8-dihydro-1~{H}-purin-8-ylium-9-yl)-3,4-dihydroxy-tetrahydrofuran-2-yl]methoxy-hydroxy-phosphoryl] phosphono hydrogen phosphate
   49    51     1     0     0
SMALL
USER_CHARGES

@<TRIPOS>ATOM
      1 PG          3.1448   -4.5921   -4.5142 P.3       1 GTP         1.7996
      2 O1G         1.7259   -4.1758   -4.2599 O.2       1 GTP        -0.8112
      3 O2G         3.9857   -5.0181   -3.2015 O.3       1 GTP        -0.7934
      4 O3G         3.3223   -5.8587   -5.5026 O.3       1 GTP        -0.7934
      5 O3B         4.0665   -3.4579   -5.2039 O.3       1 GTP        -0.8067
      6 PB          4.4843   -1.9721   -4.7262 P.3       1 GTP         1.9429
      7 O1B         5.2327   -1.9213   -3.4269 O.2       1 GTP        -0.8303
      8 O2B         5.2717   -1.3628   -5.9997 O.3       1 GTP        -0.7951
      9 O3A         3.0954   -1.1498   -4.7662 O.3       1 GTP        -0.7994
     10 PA          2.7556    0.3903   -4.4163 P.3       1 GTP         1.7871
     11 O1A         3.4961    1.3896   -5.2568 O.2       1 GTP        -0.8044
     12 O2A         1.1459    0.4566   -4.5634 O.3       1 GTP        -0.8076
     13 O5'         3.0192    0.5132   -2.8246 O.3       1 GTP        -0.5620
     14 C5'         2.2816   -0.2918   -1.9206 C.3       1 GTP         0.1570
     15 C4'         2.7248    0.0226   -0.4980 C.3       1 GTP         0.1395
     16 O4'         2.4697    1.4219   -0.2462 O.3       1 GTP        -0.3978
     17 C3'         1.9404   -0.7419    0.5596 C.3       1 GTP         0.0953
     18 O3'         2.7418   -0.8086    1.7389 O.3       1 GTP        -0.5639
     19 C2'         0.7477    0.1630    0.7858 C.3       1 GTP         0.0640
     20 O2'         0.1373   -0.0577    2.0407 O.3       1 GTP        -0.5724
     21 C1'         1.3733    1.5427    0.6747 C.3       1 GTP         0.4182
     22 N9          0.4520    2.5240    0.1767 N.pl3     1 GTP        -0.4563
     23 C8         -0.8613    2.5511    0.3730 C.ar      1 GTP         0.2386
     24 N7         -1.4346    3.5939   -0.2188 N.pl3     1 GTP        -0.4432
     25 C5         -0.4099    4.2657   -0.8276 C.ar      1 GTP        -0.2050
     26 C6         -0.4554    5.4854   -1.6209 C.ar      1 GTP         0.7599
     27 O6         -1.4907    6.0944   -1.8508 O.2       1 GTP        -0.5606
     28 N1          0.8205    5.8357   -2.0593 N.pl3     1 GTP        -0.5020
     29 C2          1.9890    5.1091   -1.7730 C.ar      1 GTP         0.7674
     30 N2          3.1452    5.6230   -2.2997 N.pl3     1 GTP        -0.9014
     31 N3          1.9765    4.0139   -1.0514 N.2       1 GTP        -0.6718
     32 C4          0.7480    3.6324   -0.6003 C.ar      1 GTP         0.3897
     33 HOG2        4.1117   -4.3612   -2.4841 H         1 GTP         0.5007
     34 HOG3        2.9180   -6.7166   -5.2524 H         1 GTP         0.5007
     35 HOB2        5.5480   -0.4218   -5.9811 H         1 GTP         0.5193
     36 HOA2        0.6824    1.2891   -4.3308 H         1 GTP         0.4890
     37 H5'         1.2150   -0.0785   -2.0448 H         1 GTP         0.0511
     38 H5''        2.4641   -1.3458   -2.1540 H         1 GTP         0.0511
     39 H4'         3.8049   -0.1388   -0.4009 H         1 GTP         0.1554
     40 H3'         1.6783   -1.7629    0.2715 H         1 GTP         0.0796
     41 HO3'        3.5554   -1.2733    1.4914 H         1 GTP         0.4259
     42 H2'        -0.0011    0.0027    0.0003 H         1 GTP         0.0621
     43 HO2'        0.8082    0.1199    2.7232 H         1 GTP         0.4287
     44 H1'         1.7826    1.9024    1.6451 H         1 GTP         0.1525
     45 H8         -1.4050    1.8187    0.9438 H         1 GTP         0.2675
     46 HN1         0.9121    6.6744   -2.6251 H         1 GTP         0.3601
     47 HN21        3.9971    5.1427   -2.1235 H         1 GTP         0.4770
     48 HN22        3.0881    6.4564   -2.8380 H         1 GTP         0.4770
     49 H49        -2.4173    3.8294   -0.2127 H         1 GTP         0.5213
@<TRIPOS>BOND
     1    1    2 2
     2    1    3 1
     3    1    4 1
     4    1    5 1
     5    3   33 1
     6    4   34 1
     7    5    6 1
     8    6    7 2
     9    6    8 1
    10    6    9 1
    11    8   35 1
    12    9   10 1
    13   10   11 2
    14   10   12 1
    15   10   13 1
    16   12   36 1
    17   13   14 1
    18   14   15 1
    19   14   37 1
    20   14   38 1
    21   15   16 1
    22   15   17 1
    23   15   39 1
    24   16   21 1
    25   17   18 1
    26   17   19 1
    27   17   40 1
    28   18   41 1
    29   19   20 1
    30   19   21 1
    31   19   42 1
    32   20   43 1
    33   21   22 1
    34   21   44 1
    35   22   23 ar
    36   22   32 ar
    37   23   24 ar
    38   23   45 1
    39   24   25 ar
    40   24   49 1
    41   25   26 ar
    42   25   32 ar
    43   26   27 2
    44   26   28 ar
    45   28   29 ar
    46   28   46 1
    47   29   30 1
    48   29   31 ar
    49   30   47 1
    50   30   48 1
    51   31   32 ar
@<TRIPOS>SUBSTRUCTURE
     1 GTP         1 GROUP 0 A     ****
@<TRIPOS>MOLECULE
[[5-(2-amino-6-oxo-7,8-dihydro-1~{H}-purin-8-ylium-9-yl)-3,4-dihydroxy-tetrahydrofuran-2-yl]methoxy-hydroxy-phosphoryl] phosphono hydrogen phosphate
   49    51     1     0     0
SMALL
USER_CHARGES

@<TRIPOS>ATOM
      1 PG          1.3051   -4.3265   -6.7230 P.3       1 GTP         1.7996
      2 O1G         2.0989   -4.4647   -7.9886 O.2       1 GTP        -0.8112
      3 O2G        -0.2930   -4.5020   -6.8870 O.3       1 GTP        -0.7934
      4 O3G         1.6821   -5.3808   -5.5572 O.3       1 GTP        -0.7934
      5 O3B         1.4562   -2.8964   -5.9856 O.3       1 GTP        -0.8067
      6 PB          2.7414   -2.1273   -5.3799 P.3       1 GTP         1.9429
      7 O1B         3.4563   -2.8691   -4.2892 O.2       1 GTP        -0.8303
      8 O2B         3.6365   -1.7838   -6.6814 O.3       1 GTP        -0.7951
      9 O3A         2.1656   -0.6739   -4.9762 O.3       1 GTP        -0.7994
     10 PA          2.8837    0.6137   -4.3156 P.3       1 GTP         1.7871
     11 O1A         4.0175    1.1693   -5.1275 O.2       1 GTP        -0.8044
     12 O2A         1.6579    1.6445   -4.0876 O.3       1 GTP        -0.8076
     13 O5'         3.2876    0.1332   -2.8242 O.3       1 GTP        -0.5620
     14 C5'         2.2816   -0.2918   -1.9206 C.3       1 GTP         0.1570
     15 C4'         2.7248    0.0226   -0.4980 C.3       1 GTP         0.1395
     16 O4'         2.4697    1.4219   -0.2462 O.3       1 GTP        -0.3978
     17 C3'         1.9404   -0.7419    0.5596 C.3       1 GTP         0.0953
     18 O3'         2.7418   -0.8086    1.7389 O.3       1 GTP        -0.5639
     19 C2'         0.7477    0.1630    0.7858 C.3       1 GTP         0.0640
     20 O2'         0.1373   -0.0577    2.0407 O.3       1 GTP        -0.5724
     21 C1'         1.3733    1.5427    0.6747 C.3       1 GTP         0.4182
     22 N9          0.4520    2.5240    0.1767 N.pl3     1 GTP        -0.4563
     23 C8          0.2203    2.8205   -1.0970 C.ar      1 GTP         0.2386
     24 N7         -0.6947    3.7752   -1.2304 N.pl3     1 GTP        -0.4432
     25 C5         -1.0607    4.0987    0.0476 C.ar      1 GTP        -0.2050
     26 C6         -2.0310    5.0839    0.5029 C.ar      1 GTP         0.7599
     27 O6         -2.6779    5.7867   -0.2609 O.2       1 GTP        -0.5606
     28 N1         -2.1030    5.0975    1.8948 N.pl3     1 GTP        -0.5020
     29 C2         -1.3422    4.2721    2.7403 C.ar      1 GTP         0.7674
     30 N2         -1.5624    4.4419    4.0823 N.pl3     1 GTP        -0.9014
     31 N3         -0.4796    3.3981    2.2792 N.2       1 GTP        -0.6718
     32 C4         -0.3754    3.3496    0.9208 C.ar      1 GTP         0.3897
     33 HOG2       -0.7800   -3.8894   -7.4783 H         1 GTP         0.5007
     34 HOG3        1.5843   -6.3405   -5.7351 H         1 GTP         0.5007
     35 HOB2        4.4378   -1.2285   -6.5733 H         1 GTP         0.5193
     36 HOA2        1.8312    2.4926   -3.6265 H         1 GTP         0.4890
     37 H5'         1.3495    0.2323   -2.1554 H         1 GTP         0.0511
     38 H5''        2.1262   -1.3685   -2.0437 H         1 GTP         0.0511
     39 H4'         3.8049   -0.1388   -0.4009 H         1 GTP         0.1554
     40 H3'         1.6783   -1.7629    0.2715 H         1 GTP         0.0796
     41 HO3'        3.5554   -1.2733    1.4914 H         1 GTP         0.4259
     42 H2'        -0.0011    0.0027    0.0003 H         1 GTP         0.0621
     43 HO2'       -0.6141    0.5574    2.1082 H         1 GTP         0.4287
     44 H1'         1.7826    1.9024    1.6451 H         1 GTP         0.1525
     45 H8          0.7110    2.3472   -1.9295 H         1 GTP         0.2675
     46 HN1        -2.7504    5.7495    2.3282 H         1 GTP         0.3601
     47 HN21       -2.2294    5.1209    4.3678 H         1 GTP         0.4770
     48 HN22       -1.0468    3.8797    4.7192 H         1 GTP         0.4770
     49 H49        -1.0382    4.1687   -2.0954 H         1 GTP         0.5213
@<TRIPOS>BOND
     1    1    2 2
     2    1    3 1
     3    1    4 1
     4    1    5 1
     5    3   33 1
     6    4   34 1
     7    5    6 1
     8    6    7 2
     9    6    8 1
    10    6    9 1
    11    8   35 1
    12    9   10 1
    13   10   11 2
    14   10   12 1
    15   10   13 1
    16   12   36 1
    17   13   14 1
    18   14   15 1
    19   14   37 1
    20   14   38 1
    21   15   16 1
    22   15   17 1
    23   15   39 1
    24   16   21 1
    25   17   18 1
    26   17   19 1
    27   17   40 1
    28   18   41 1
    29   19   20 1
    30   19   21 1
    31   19   42 1
    32   20   43 1
    33   21   22 1
    34   21   44 1
    35   22   23 ar
    36   22   32 ar
    37   23   24 ar
    38   23   45 1
    39   24   25 ar
    40   24   49 1
    41   25   26 ar
    42   25   32 ar
    43   26   27 2
    44   26   28 ar
    45   28   29 ar
    46   28   46 1
    47   29   30 1
    48   29   31 ar
    49   30   47 1
    50   30   48 1
    51   31   32 ar
@<TRIPOS>SUBSTRUCTURE
     1 GTP         1 GROUP 0 A     ****
@<TRIPOS>MOLECULE
[[5-(2-amino-6-oxo-7,8-dihydro-1~{H}-purin-8-ylium-9-yl)-3,4-dihydroxy-tetrahydrofuran-2-yl]methoxy-hydroxy-phosphoryl] phosphono hydrogen phosphate
   49    51     1     0     0
SMALL
USER_CHARGES

@<TRIPOS>ATOM
      1 PG         -1.1464   -4.8558   -6.2928 P.3       1 GTP         1.7996
      2 O1G        -2.6195   -4.9328   -6.0183 O.2       1 GTP        -0.8112
      3 O2G        -0.3487   -6.2569   -6.1813 O.3       1 GTP        -0.7934
      4 O3G        -0.7491   -4.3120   -7.7621 O.3       1 GTP        -0.7934
      5 O3B        -0.3275   -3.8731   -5.3052 O.3       1 GTP        -0.8067
      6 PB         -0.4555   -2.2895   -5.0121 P.3       1 GTP         1.9429
      7 O1B        -0.2426   -1.4133   -6.2113 O.2       1 GTP        -0.8303
      8 O2B        -1.8987   -2.1429   -4.2987 O.3       1 GTP        -0.7951
      9 O3A         0.5552   -2.0432   -3.7774 O.3       1 GTP        -0.7994
     10 PA          2.1468   -2.2811   -3.6362 P.3       1 GTP         1.7871
     11 O1A         2.5767   -3.7041   -3.8445 O.2       1 GTP        -0.8044
     12 O2A         2.7731   -1.2324   -4.6970 O.3       1 GTP        -0.8076
     13 O5'         2.5234   -1.6624   -2.1893 O.3       1 GTP        -0.5620
     14 C5'         2.2816   -0.2918   -1.9206 C.3       1 GTP         0.1570
     15 C4'         2.7248    0.0226   -0.4980 C.3       1 GTP         0.1395
     16 O4'         2.4697    1.4219   -0.2462 O.3       1 GTP        -0.3978
     17 C3'         1.9404   -0.7419    0.5596 C.3       1 GTP         0.0953
     18 O3'         2.7418   -0.8086    1.7389 O.3       1 GTP        -0.5639
     19 C2'         0.7477    0.1630    0.7858 C.3       1 GTP         0.0640
     20 O2'         0.1373   -0.0577    2.0407 O.3       1 GTP        -0.5724
     21 C1'         1.3733    1.5427    0.6747 C.3       1 GTP         0.4182
     22 N9          0.4520    2.5240    0.1767 N.pl3     1 GTP        -0.4563
     23 C8         -0.3350    3.3125    0.8998 C.ar      1 GTP         0.2386
     24 N7         -1.0716    4.1171    0.1405 N.pl3     1 GTP        -0.4432
     25 C5         -0.7219    3.8110   -1.1464 C.ar      1 GTP        -0.2050
     26 C6         -1.2133    4.3827   -2.3917 C.ar      1 GTP         0.7599
     27 O6         -2.0567    5.2674   -2.4335 O.2       1 GTP        -0.5606
     28 N1         -0.5926    3.7846   -3.4870 N.pl3     1 GTP        -0.5020
     29 C2          0.3749    2.7691   -3.3983 C.ar      1 GTP         0.7674
     30 N2          0.8624    2.3146   -4.5959 N.pl3     1 GTP        -0.9014
     31 N3          0.7851    2.2875   -2.2493 N.2       1 GTP        -0.6718
     32 C4          0.2042    2.8436   -1.1486 C.ar      1 GTP         0.3897
     33 HOG2       -0.6074   -6.9989   -6.7682 H         1 GTP         0.5007
     34 HOG3       -1.0361   -3.4129   -8.0293 H         1 GTP         0.5007
     35 HOB2       -2.7072   -2.3393   -4.8183 H         1 GTP         0.5193
     36 HOA2        3.7478   -1.1363   -4.7496 H         1 GTP         0.4890
     37 H5'         2.8429    0.3147   -2.6388 H         1 GTP         0.0511
     38 H5''        1.2125   -0.0898   -2.0417 H         1 GTP         0.0511
     39 H4'         3.8049   -0.1388   -0.4009 H         1 GTP         0.1554
     40 H3'         1.6783   -1.7629    0.2715 H         1 GTP         0.0796
     41 HO3'        2.2232   -1.2979    2.3953 H         1 GTP         0.4259
     42 H2'        -0.0011    0.0027    0.0003 H         1 GTP         0.0621
     43 HO2'       -0.6141    0.5574    2.1082 H         1 GTP         0.4287
     44 H1'         1.7826    1.9024    1.6451 H         1 GTP         0.1525
     45 H8         -0.3766    3.3075    1.9750 H         1 GTP         0.2675
     46 HN1        -0.8580    4.1049   -4.4138 H         1 GTP         0.3601
     47 HN21        1.5490    1.5963   -4.5827 H         1 GTP         0.4770
     48 HN22        0.5109    2.7205   -5.4321 H         1 GTP         0.4770
     49 H49        -1.7420    4.8034    0.4575 H         1 GTP         0.5213
@<TRIPOS>BOND
     1    1    2 2
     2    1    3 1
     3    1    4 1
     4    1    5 1
     5    3   33 1
     6    4   34 1
     7    5    6 1
     8    6    7 2
     9    6    8 1
    10    6    9 1
    11    8   35 1
    12    9   10 1
    13   10   11 2
    14   10   12 1
    15   10   13 1
    16   12   36 1
    17   13   14 1
    18   14   15 1
    19   14   37 1
    20   14   38 1
    21   15   16 1
    22   15   17 1
    23   15   39 1
    24   16   21 1
    25   17   18 1
    26   17   19 1
    27   17   40 1
    28   18   41 1
    29   19   20 1
    30   19   21 1
    31   19   42 1
    32   20   43 1
    33   21   22 1
    34   21   44 1
    35   22   23 ar
    36   22   32 ar
    37   23   24 ar
    38   23   45 1
    39   24   25 ar
    40   24   49 1
    41   25   26 ar
    42   25   32 ar
    43   26   27 2
    44   26   28 ar
    45   28   29 ar
    46   28   46 1
    47   29   30 1
    48   29   31 ar
    49   30   47 1
    50   30   48 1
    51   31   32 ar
@<TRIPOS>SUBSTRUCTURE
     1 GTP         1 GROUP 0 A     ****
@<TRIPOS>MOLECULE
[[5-(2-amino-6-oxo-7,8-dihydro-1~{H}-purin-8-ylium-9-yl)-3,4-dihydroxy-tetrahydrofuran-2-yl]methoxy-hydroxy-phosphoryl] phosphono hydrogen phosphate
   49    51     1     0     0
SMALL
USER_CHARGES

@<TRIPOS>ATOM
      1 PG         -2.7693   -3.8644   -3.3418 P.3       1 GTP         1.7996
      2 O1G        -2.7906   -5.2955   -3.7920 O.2       1 GTP        -0.8112
      3 O2G        -3.8566   -2.9011   -4.0499 O.3       1 GTP        -0.7934
      4 O3G        -3.0352   -3.6368   -1.7638 O.3       1 GTP        -0.7934
      5 O3B        -1.3668   -3.1008   -3.5903 O.3       1 GTP        -0.8067
      6 PB          0.1291   -3.3944   -3.0552 P.3       1 GTP         1.9429
      7 O1B         0.2742   -3.3699   -1.5621 O.2       1 GTP        -0.8303
      8 O2B         0.5269   -4.7919   -3.7637 O.3       1 GTP        -0.7951
      9 O3A         1.0421   -2.3368   -3.8642 O.3       1 GTP        -0.7994
     10 PA          2.6333   -2.0590   -3.8369 P.3       1 GTP         1.7871
     11 O1A         3.4709   -3.2427   -4.2251 O.2       1 GTP        -0.8044
     12 O2A         2.8015   -0.7752   -4.8069 O.3       1 GTP        -0.8076
     13 O5'         2.9196   -1.4816   -2.3527 O.3       1 GTP        -0.5620
     14 C5'         2.2816   -0.2918   -1.9206 C.3       1 GTP         0.1570
     15 C4'         2.7248    0.0226   -0.4980 C.3       1 GTP         0.1395
     16 O4'         2.4697    1.4219   -0.2462 O.3       1 GTP        -0.3978
     17 C3'         1.9404   -0.7419    0.5596 C.3       1 GTP         0.0953
     18 O3'         2.7418   -0.8086    1.7389 O.3       1 GTP        -0.5639
     19 C2'         0.7477    0.1630    0.7858 C.3       1 GTP         0.0640
     20 O2'         0.1373   -0.0577    2.0407 O.3       1 GTP        -0.5724
     21 C1'         1.3733    1.5427    0.6747 C.3       1 GTP         0.4182
     22 N9          0.4520    2.5240    0.1767 N.pl3     1 GTP        -0.4563
     23 C8          0.0862    3.6482    0.7820 C.ar      1 GTP         0.2386
     24 N7         -0.7824    4.3469    0.0582 N.pl3     1 GTP        -0.4432
     25 C5         -0.9737    3.6092   -1.0781 C.ar      1 GTP        -0.2050
     26 C6         -1.8237    3.8942   -2.2250 C.ar      1 GTP         0.7599
     27 O6         -2.5148    4.8996   -2.3108 O.2       1 GTP        -0.5606
     28 N1         -1.7276    2.8778   -3.1740 N.pl3     1 GTP        -0.5020
     29 C2         -0.9198    1.7357   -3.0394 C.ar      1 GTP         0.7674
     30 N2         -0.9680    0.8541   -4.0876 N.pl3     1 GTP        -0.9014
     31 N3         -0.1700    1.5254   -1.9839 N.2       1 GTP        -0.6718
     32 C4         -0.2323    2.4951   -1.0278 C.ar      1 GTP         0.3897
     33 HOG2       -4.8101   -3.1104   -3.9548 H         1 GTP         0.5007
     34 HOG3       -2.4234   -4.0457   -1.1154 H         1 GTP         0.5007
     35 HOB2        0.0381   -5.6055   -3.5161 H         1 GTP         0.5193
     36 HOA2        3.6874   -0.3651   -4.9013 H         1 GTP         0.4890
     37 H5'         2.5578    0.5242   -2.5963 H         1 GTP         0.0511
     38 H5''        1.1971   -0.4363   -1.9604 H         1 GTP         0.0511
     39 H4'         3.8049   -0.1388   -0.4009 H         1 GTP         0.1554
     40 H3'         1.6783   -1.7629    0.2715 H         1 GTP         0.0796
     41 HO3'        2.2232   -1.2979    2.3953 H         1 GTP         0.4259
     42 H2'        -0.0011    0.0027    0.0003 H         1 GTP         0.0621
     43 HO2'       -0.6141    0.5574    2.1082 H         1 GTP         0.4287
     44 H1'         1.7826    1.9024    1.6451 H         1 GTP         0.1525
     45 H8          0.4470    3.9641    1.7452 H         1 GTP         0.2675
     46 HN1        -2.2799    2.9689   -4.0217 H         1 GTP         0.3601
     47 HN21       -0.4130    0.0313   -4.0369 H         1 GTP         0.4770
     48 HN22       -1.5561    1.0708   -4.8588 H         1 GTP         0.4770
     49 H49        -1.2034    5.2317    0.3050 H         1 GTP         0.5213
@<TRIPOS>BOND
     1    1    2 2
     2    1    3 1
     3    1    4 1
     4    1    5 1
     5    3   33 1
     6    4   34 1
     7    5    6 1
     8    6    7 2
     9    6    8 1
    10    6    9 1
    11    8   35 1
    12    9   10 1
    13   10   11 2
    14   10   12 1
    15   10   13 1
    16   12   36 1
    17   13   14 1
    18   14   15 1
    19   14   37 1
    20   14   38 1
    21   15   16 1
    22   15   17 1
    23   15   39 1
    24   16   21 1
    25   17   18 1
    26   17   19 1
    27   17   40 1
    28   18   41 1
    29   19   20 1
    30   19   21 1
    31   19   42 1
    32   20   43 1
    33   21   22 1
    34   21   44 1
    35   22   23 ar
    36   22   32 ar
    37   23   24 ar
    38   23   45 1
    39   24   25 ar
    40   24   49 1
    41   25   26 ar
    42   25   32 ar
    43   26   27 2
    44   26   28 ar
    45   28   29 ar
    46   28   46 1
    47   29   30 1
    48   29   31 ar
    49   30   47 1
    50   30   48 1
    51   31   32 ar
@<TRIPOS>SUBSTRUCTURE
     1 GTP         1 GROUP 0 A     ****
@<TRIPOS>MOLECULE
[[5-(2-amino-6-oxo-7,8-dihydro-1~{H}-purin-8-ylium-9-yl)-3,4-dihydroxy-tetrahydrofuran-2-yl]methoxy-hydroxy-phosphoryl] phosphono hydrogen phosphate
   49    51     1     0     0
SMALL
USER_CHARGES

@<TRIPOS>ATOM
      1 PG          2.0047    0.1065   -9.0943 P.3       1 GTP         1.7996
      2 O1G         2.1990   -1.2234   -9.7613 O.2       1 GTP        -0.8112
      3 O2G         3.0652    1.2514   -9.5139 O.3       1 GTP        -0.7934
      4 O3G         0.5714    0.8051   -9.3599 O.3       1 GTP        -0.7934
      5 O3B         2.1015    0.0720   -7.4815 O.3       1 GTP        -0.8067
      6 PB          1.2428   -0.7229   -6.3675 P.3       1 GTP         1.9429
      7 O1B        -0.2233   -0.4043   -6.3649 O.2       1 GTP        -0.8303
      8 O2B         1.6105   -2.2750   -6.6295 O.3       1 GTP        -0.7951
      9 O3A         2.0268   -0.4208   -4.9889 O.3       1 GTP        -0.7994
     10 PA          2.3560    0.9665   -4.2292 P.3       1 GTP         1.7871
     11 O1A         3.1811    1.9277   -5.0346 O.2       1 GTP        -0.8044
     12 O2A         0.8921    1.5216   -3.8219 O.3       1 GTP        -0.8076
     13 O5'         3.0192    0.5132   -2.8246 O.3       1 GTP        -0.5620
     14 C5'         2.2816   -0.2918   -1.9206 C.3       1 GTP         0.1570
     15 C4'         2.7248    0.0226   -0.4980 C.3       1 GTP         0.1395
     16 O4'         2.4697    1.4219   -0.2462 O.3       1 GTP        -0.3978
     17 C3'         1.9404   -0.7419    0.5596 C.3       1 GTP         0.0953
     18 O3'         2.7418   -0.8086    1.7389 O.3       1 GTP        -0.5639
     19 C2'         0.7477    0.1630    0.7858 C.3       1 GTP         0.0640
     20 O2'         0.1373   -0.0577    2.0407 O.3       1 GTP        -0.5724
     21 C1'         1.3733    1.5427    0.6747 C.3       1 GTP         0.4182
     22 N9          0.4520    2.5240    0.1767 N.pl3     1 GTP        -0.4563
     23 C8         -0.2009    2.4849   -0.9792 C.ar      1 GTP         0.2386
     24 N7         -0.9840    3.5454   -1.1481 N.pl3     1 GTP        -0.4432
     25 C5         -0.8090    4.3005   -0.0206 C.ar      1 GTP        -0.2050
     26 C6         -1.4206    5.5724    0.3362 C.ar      1 GTP         0.7599
     27 O6         -2.2199    6.1544   -0.3836 O.2       1 GTP        -0.5606
     28 N1         -0.9680    6.0043    1.5817 N.pl3     1 GTP        -0.5020
     29 C2         -0.0474    5.3055    2.3814 C.ar      1 GTP         0.7674
     30 N2          0.2680    5.9024    3.5740 N.pl3     1 GTP        -0.9014
     31 N3          0.4755    4.1601    2.0138 N.2       1 GTP        -0.6718
     32 C4          0.0611    3.6981    0.8001 C.ar      1 GTP         0.3897
     33 HOG2        4.0197    1.0989   -9.3473 H         1 GTP         0.5007
     34 HOG3        0.3105    1.0183  -10.2811 H         1 GTP         0.5007
     35 HOB2        1.3277   -2.6946   -7.4698 H         1 GTP         0.5193
     36 HOA2        0.2642    1.7695   -4.5334 H         1 GTP         0.4890
     37 H5'         1.2150   -0.0785   -2.0448 H         1 GTP         0.0511
     38 H5''        2.4641   -1.3458   -2.1540 H         1 GTP         0.0511
     39 H4'         3.8049   -0.1388   -0.4009 H         1 GTP         0.1554
     40 H3'         1.6783   -1.7629    0.2715 H         1 GTP         0.0796
     41 HO3'        2.2232   -1.2979    2.3953 H         1 GTP         0.4259
     42 H2'        -0.0011    0.0027    0.0003 H         1 GTP         0.0621
     43 HO2'       -0.1563   -0.9855    2.0596 H         1 GTP         0.4287
     44 H1'         1.7826    1.9024    1.6451 H         1 GTP         0.1525
     45 H8         -0.1126    1.6906   -1.6997 H         1 GTP         0.2675
     46 HN1        -1.3285    6.8855    1.9361 H         1 GTP         0.3601
     47 HN21       -0.1625    6.7706    3.7945 H         1 GTP         0.4770
     48 HN22        0.9153    5.4448    4.1733 H         1 GTP         0.4770
     49 H49        -1.5768    3.7405   -1.9429 H         1 GTP         0.5213
@<TRIPOS>BOND
     1    1    2 2
     2    1    3 1
     3    1    4 1
     4    1    5 1
     5    3   33 1
     6    4   34 1
     7    5    6 1
     8    6    7 2
     9    6    8 1
    10    6    9 1
    11    8   35 1
    12    9   10 1
    13   10   11 2
    14   10   12 1
    15   10   13 1
    16   12   36 1
    17   13   14 1
    18   14   15 1
    19   14   37 1
    20   14   38 1
    21   15   16 1
    22   15   17 1
    23   15   39 1
    24   16   21 1
    25   17   18 1
    26   17   19 1
    27   17   40 1
    28   18   41 1
    29   19   20 1
    30   19   21 1
    31   19   42 1
    32   20   43 1
    33   21   22 1
    34   21   44 1
    35   22   23 ar
    36   22   32 ar
    37   23   24 ar
    38   23   45 1
    39   24   25 ar
    40   24   49 1
    41   25   26 ar
    42   25   32 ar
    43   26   27 2
    44   26   28 ar
    45   28   29 ar
    46   28   46 1
    47   29   30 1
    48   29   31 ar
    49   30   47 1
    50   30   48 1
    51   31   32 ar
@<TRIPOS>SUBSTRUCTURE
     1 GTP         1 GROUP 0 A     ****
@<TRIPOS>MOLECULE
[[5-(2-amino-6-oxo-7,8-dihydro-1~{H}-purin-8-ylium-9-yl)-3,4-dihydroxy-tetrahydrofuran-2-yl]methoxy-hydroxy-phosphoryl] phosphono hydrogen phosphate
   49    51     1     0     0
SMALL
USER_CHARGES

@<TRIPOS>ATOM
      1 PG          4.9490   -4.7676   -5.5466 P.3       1 GTP         1.7996
      2 O1G         5.7897   -5.2703   -4.4101 O.2       1 GTP        -0.8112
      3 O2G         5.7660   -4.3383   -6.8732 O.3       1 GTP        -0.7934
      4 O3G         3.8500   -5.8140   -6.1031 O.3       1 GTP        -0.7934
      5 O3B         4.0665   -3.4579   -5.2039 O.3       1 GTP        -0.8067
      6 PB          4.4843   -1.9721   -4.7262 P.3       1 GTP         1.9429
      7 O1B         5.2327   -1.9213   -3.4269 O.2       1 GTP        -0.8303
      8 O2B         5.2717   -1.3628   -5.9997 O.3       1 GTP        -0.7951
      9 O3A         3.0954   -1.1498   -4.7662 O.3       1 GTP        -0.7994
     10 PA          2.7556    0.3903   -4.4163 P.3       1 GTP         1.7871
     11 O1A         3.4961    1.3896   -5.2568 O.2       1 GTP        -0.8044
     12 O2A         1.1459    0.4566   -4.5634 O.3       1 GTP        -0.8076
     13 O5'         3.0192    0.5132   -2.8246 O.3       1 GTP        -0.5620
     14 C5'         2.2816   -0.2918   -1.9206 C.3       1 GTP         0.1570
     15 C4'         2.7248    0.0226   -0.4980 C.3       1 GTP         0.1395
     16 O4'         2.4697    1.4219   -0.2462 O.3       1 GTP        -0.3978
     17 C3'         1.9404   -0.7419    0.5596 C.3       1 GTP         0.0953
     18 O3'         2.7418   -0.8086    1.7389 O.3       1 GTP        -0.5639
     19 C2'         0.7477    0.1630    0.7858 C.3       1 GTP         0.0640
     20 O2'         0.1373   -0.0577    2.0407 O.3       1 GTP        -0.5724
     21 C1'         1.3733    1.5427    0.6747 C.3       1 GTP         0.4182
     22 N9          0.4520    2.5240    0.1767 N.pl3     1 GTP        -0.4563
     23 C8         -0.8613    2.5511    0.3730 C.ar      1 GTP         0.2386
     24 N7         -1.4346    3.5939   -0.2188 N.pl3     1 GTP        -0.4432
     25 C5         -0.4099    4.2657   -0.8276 C.ar      1 GTP        -0.2050
     26 C6         -0.4554    5.4854   -1.6209 C.ar      1 GTP         0.7599
     27 O6         -1.4907    6.0944   -1.8508 O.2       1 GTP        -0.5606
     28 N1          0.8205    5.8357   -2.0593 N.pl3     1 GTP        -0.5020
     29 C2          1.9890    5.1091   -1.7730 C.ar      1 GTP         0.7674
     30 N2          3.1452    5.6230   -2.2997 N.pl3     1 GTP        -0.9014
     31 N3          1.9765    4.0139   -1.0514 N.2       1 GTP        -0.6718
     32 C4          0.7480    3.6324   -0.6003 C.ar      1 GTP         0.3897
     33 HOG2        6.4354   -3.6243   -6.8087 H         1 GTP         0.5007
     34 HOG3        4.1531   -6.6751   -6.4618 H         1 GTP         0.5007
     35 HOB2        5.5480   -0.4218   -5.9811 H         1 GTP         0.5193
     36 HOA2        0.6824    1.2891   -4.3308 H         1 GTP         0.4890
     37 H5'         1.2150   -0.0785   -2.0448 H         1 GTP         0.0511
     38 H5''        2.4641   -1.3458   -2.1540 H         1 GTP         0.0511
     39 H4'         3.8049   -0.1388   -0.4009 H         1 GTP         0.1554
     40 H3'         1.6783   -1.7629    0.2715 H         1 GTP         0.0796
     41 HO3'        3.5554   -1.2733    1.4914 H         1 GTP         0.4259
     42 H2'        -0.0011    0.0027    0.0003 H         1 GTP         0.0621
     43 HO2'        0.8082    0.1199    2.7232 H         1 GTP         0.4287
     44 H1'         1.7826    1.9024    1.6451 H         1 GTP         0.1525
     45 H8         -1.4050    1.8187    0.9438 H         1 GTP         0.2675
     46 HN1         0.9121    6.6744   -2.6251 H         1 GTP         0.3601
     47 HN21        3.9971    5.1427   -2.1235 H         1 GTP         0.4770
     48 HN22        3.0881    6.4564   -2.8380 H         1 GTP         0.4770
     49 H49        -2.4173    3.8294   -0.2127 H         1 GTP         0.5213
@<TRIPOS>BOND
     1    1    2 2
     2    1    3 1
     3    1    4 1
     4    1    5 1
     5    3   33 1
     6    4   34 1
     7    5    6 1
     8    6    7 2
     9    6    8 1
    10    6    9 1
    11    8   35 1
    12    9   10 1
    13   10   11 2
    14   10   12 1
    15   10   13 1
    16   12   36 1
    17   13   14 1
    18   14   15 1
    19   14   37 1
    20   14   38 1
    21   15   16 1
    22   15   17 1
    23   15   39 1
    24   16   21 1
    25   17   18 1
    26   17   19 1
    27   17   40 1
    28   18   41 1
    29   19   20 1
    30   19   21 1
    31   19   42 1
    32   20   43 1
    33   21   22 1
    34   21   44 1
    35   22   23 ar
    36   22   32 ar
    37   23   24 ar
    38   23   45 1
    39   24   25 ar
    40   24   49 1
    41   25   26 ar
    42   25   32 ar
    43   26   27 2
    44   26   28 ar
    45   28   29 ar
    46   28   46 1
    47   29   30 1
    48   29   31 ar
    49   30   47 1
    50   30   48 1
    51   31   32 ar
@<TRIPOS>SUBSTRUCTURE
     1 GTP         1 GROUP 0 A     ****
@<TRIPOS>MOLECULE
[[5-(2-amino-6-oxo-7,8-dihydro-1~{H}-purin-8-ylium-9-yl)-3,4-dihydroxy-tetrahydrofuran-2-yl]methoxy-hydroxy-phosphoryl] phosphono hydrogen phosphate
   49    51     1     0     0
SMALL
USER_CHARGES

@<TRIPOS>ATOM
      1 PG          4.9462   -4.0030   -5.3576 P.3       1 GTP         1.7996
      2 O1G         5.9811   -3.8017   -6.4251 O.2       1 GTP        -0.8112
      3 O2G         4.6918   -5.5384   -4.9226 O.3       1 GTP        -0.7934
      4 O3G         5.2525   -3.2599   -3.9553 O.3       1 GTP        -0.7934
      5 O3B         3.4703   -3.4675   -5.7406 O.3       1 GTP        -0.8067
      6 PB          2.9251   -1.9973   -6.1298 P.3       1 GTP         1.9429
      7 O1B         3.5597   -1.3990   -7.3506 O.2       1 GTP        -0.8303
      8 O2B         1.3217   -2.1869   -6.2090 O.3       1 GTP        -0.7951
      9 O3A         3.0954   -1.1498   -4.7662 O.3       1 GTP        -0.7994
     10 PA          2.7556    0.3903   -4.4163 P.3       1 GTP         1.7871
     11 O1A         3.4961    1.3896   -5.2568 O.2       1 GTP        -0.8044
     12 O2A         1.1459    0.4566   -4.5634 O.3       1 GTP        -0.8076
     13 O5'         3.0192    0.5132   -2.8246 O.3       1 GTP        -0.5620
     14 C5'         2.2816   -0.2918   -1.9206 C.3       1 GTP         0.1570
     15 C4'         2.7248    0.0226   -0.4980 C.3       1 GTP         0.1395
     16 O4'         2.4697    1.4219   -0.2462 O.3       1 GTP        -0.3978
     17 C3'         1.9404   -0.7419    0.5596 C.3       1 GTP         0.0953
     18 O3'         2.7418   -0.8086    1.7389 O.3       1 GTP        -0.5639
     19 C2'         0.7477    0.1630    0.7858 C.3       1 GTP         0.0640
     20 O2'         0.1373   -0.0577    2.0407 O.3       1 GTP        -0.5724
     21 C1'         1.3733    1.5427    0.6747 C.3       1 GTP         0.4182
     22 N9          0.4520    2.5240    0.1767 N.pl3     1 GTP        -0.4563
     23 C8         -0.8613    2.5511    0.3730 C.ar      1 GTP         0.2386
     24 N7         -1.4346    3.5939   -0.2188 N.pl3     1 GTP        -0.4432
     25 C5         -0.4099    4.2657   -0.8276 C.ar      1 GTP        -0.2050
     26 C6         -0.4554    5.4854   -1.6209 C.ar      1 GTP         0.7599
     27 O6         -1.4907    6.0944   -1.8508 O.2       1 GTP        -0.5606
     28 N1          0.8205    5.8357   -2.0593 N.pl3     1 GTP        -0.5020
     29 C2          1.9890    5.1091   -1.7730 C.ar      1 GTP         0.7674
     30 N2          3.1452    5.6230   -2.2997 N.pl3     1 GTP        -0.9014
     31 N3          1.9765    4.0139   -1.0514 N.2       1 GTP        -0.6718
     32 C4          0.7480    3.6324   -0.6003 C.ar      1 GTP         0.3897
     33 HOG2        5.4385   -6.0584   -4.5563 H         1 GTP         0.5007
     34 HOG3        5.3435   -2.2833   -3.9453 H         1 GTP         0.5007
     35 HOB2        0.7564   -1.3968   -6.3439 H         1 GTP         0.5193
     36 HOA2        0.6824    1.2891   -4.3308 H         1 GTP         0.4890
     37 H5'         1.2150   -0.0785   -2.0448 H         1 GTP         0.0511
     38 H5''        2.4641   -1.3458   -2.1540 H         1 GTP         0.0511
     39 H4'         3.8049   -0.1388   -0.4009 H         1 GTP         0.1554
     40 H3'         1.6783   -1.7629    0.2715 H         1 GTP         0.0796
     41 HO3'        3.5554   -1.2733    1.4914 H         1 GTP         0.4259
     42 H2'        -0.0011    0.0027    0.0003 H         1 GTP         0.0621
     43 HO2'        0.8082    0.1199    2.7232 H         1 GTP         0.4287
     44 H1'         1.7826    1.9024    1.6451 H         1 GTP         0.1525
     45 H8         -1.4050    1.8187    0.9438 H         1 GTP         0.2675
     46 HN1         0.9121    6.6744   -2.6251 H         1 GTP         0.3601
     47 HN21        3.0878    6.4564   -2.8379 H         1 GTP         0.4770
     48 HN22        3.9973    5.1428   -2.1236 H         1 GTP         0.4770
     49 H49        -2.4173    3.8294   -0.2127 H         1 GTP         0.5213
@<TRIPOS>BOND
     1    1    2 2
     2    1    3 1
     3    1    4 1
     4    1    5 1
     5    3   33 1
     6    4   34 1
     7    5    6 1
     8    6    7 2
     9    6    8 1
    10    6    9 1
    11    8   35 1
    12    9   10 1
    13   10   11 2
    14   10   12 1
    15   10   13 1
    16   12   36 1
    17   13   14 1
    18   14   15 1
    19   14   37 1
    20   14   38 1
    21   15   16 1
    22   15   17 1
    23   15   39 1
    24   16   21 1
    25   17   18 1
    26   17   19 1
    27   17   40 1
    28   18   41 1
    29   19   20 1
    30   19   21 1
    31   19   42 1
    32   20   43 1
    33   21   22 1
    34   21   44 1
    35   22   23 ar
    36   22   32 ar
    37   23   24 ar
    38   23   45 1
    39   24   25 ar
    40   24   49 1
    41   25   26 ar
    42   25   32 ar
    43   26   27 2
    44   26   28 ar
    45   28   29 ar
    46   28   46 1
    47   29   30 1
    48   29   31 ar
    49   30   47 1
    50   30   48 1
    51   31   32 ar
@<TRIPOS>SUBSTRUCTURE
     1 GTP         1 GROUP 0 A     ****
@<TRIPOS>MOLECULE
[[5-(2-amino-6-oxo-7,8-dihydro-1~{H}-purin-8-ylium-9-yl)-3,4-dihydroxy-tetrahydrofuran-2-yl]methoxy-hydroxy-phosphoryl] phosphono hydrogen phosphate
   49    51     1     0     0
SMALL
USER_CHARGES

@<TRIPOS>ATOM
      1 PG         -3.3340   -1.6555   -5.1403 P.3       1 GTP         1.7996
      2 O1G        -3.3645   -0.6582   -6.2609 O.2       1 GTP        -0.8112
      3 O2G        -4.3271   -1.3381   -3.9056 O.3       1 GTP        -0.7934
      4 O3G        -3.7221   -3.1684   -5.5566 O.3       1 GTP        -0.7934
      5 O3B        -1.8917   -1.8296   -4.4323 O.3       1 GTP        -0.8067
      6 PB         -0.4555   -2.2895   -5.0121 P.3       1 GTP         1.9429
      7 O1B        -0.4338   -3.6674   -5.6052 O.2       1 GTP        -0.8303
      8 O2B        -0.0461   -1.0970   -6.0238 O.3       1 GTP        -0.7951
      9 O3A         0.5552   -2.0432   -3.7774 O.3       1 GTP        -0.7994
     10 PA          2.1468   -2.2811   -3.6362 P.3       1 GTP         1.7871
     11 O1A         2.5767   -3.7041   -3.8445 O.2       1 GTP        -0.8044
     12 O2A         2.7731   -1.2324   -4.6970 O.3       1 GTP        -0.8076
     13 O5'         2.5234   -1.6624   -2.1893 O.3       1 GTP        -0.5620
     14 C5'         2.2816   -0.2918   -1.9206 C.3       1 GTP         0.1570
     15 C4'         2.7248    0.0226   -0.4980 C.3       1 GTP         0.1395
     16 O4'         2.4697    1.4219   -0.2462 O.3       1 GTP        -0.3978
     17 C3'         1.9404   -0.7419    0.5596 C.3       1 GTP         0.0953
     18 O3'         2.7418   -0.8086    1.7389 O.3       1 GTP        -0.5639
     19 C2'         0.7477    0.1630    0.7858 C.3       1 GTP         0.0640
     20 O2'         0.1373   -0.0577    2.0407 O.3       1 GTP        -0.5724
     21 C1'         1.3733    1.5427    0.6747 C.3       1 GTP         0.4182
     22 N9          0.4520    2.5240    0.1767 N.pl3     1 GTP        -0.4563
     23 C8         -0.3350    3.3125    0.8998 C.ar      1 GTP         0.2386
     24 N7         -1.0716    4.1171    0.1405 N.pl3     1 GTP        -0.4432
     25 C5         -0.7219    3.8110   -1.1464 C.ar      1 GTP        -0.2050
     26 C6         -1.2133    4.3827   -2.3917 C.ar      1 GTP         0.7599
     27 O6         -2.0567    5.2674   -2.4335 O.2       1 GTP        -0.5606
     28 N1         -0.5926    3.7846   -3.4870 N.pl3     1 GTP        -0.5020
     29 C2          0.3749    2.7691   -3.3983 C.ar      1 GTP         0.7674
     30 N2          0.8624    2.3146   -4.5959 N.pl3     1 GTP        -0.9014
     31 N3          0.7851    2.2875   -2.2493 N.2       1 GTP        -0.6718
     32 C4          0.2042    2.8436   -1.1486 C.ar      1 GTP         0.3897
     33 HOG2       -4.2154   -0.4994   -3.4095 H         1 GTP         0.5007
     34 HOG3       -4.6086   -3.3433   -5.9381 H         1 GTP         0.5007
     35 HOB2       -0.5798   -0.9585   -6.8350 H         1 GTP         0.5193
     36 HOA2        2.5861   -1.3552   -5.6519 H         1 GTP         0.4890
     37 H5'         2.8429    0.3147   -2.6388 H         1 GTP         0.0511
     38 H5''        1.2125   -0.0898   -2.0417 H         1 GTP         0.0511
     39 H4'         3.8049   -0.1388   -0.4009 H         1 GTP         0.1554
     40 H3'         1.6783   -1.7629    0.2715 H         1 GTP         0.0796
     41 HO3'        3.5554   -1.2733    1.4914 H         1 GTP         0.4259
     42 H2'        -0.0011    0.0027    0.0003 H         1 GTP         0.0621
     43 HO2'       -0.1563   -0.9855    2.0596 H         1 GTP         0.4287
     44 H1'         1.7826    1.9024    1.6451 H         1 GTP         0.1525
     45 H8         -0.3766    3.3075    1.9750 H         1 GTP         0.2675
     46 HN1        -0.8580    4.1049   -4.4138 H         1 GTP         0.3601
     47 HN21        1.5490    1.5963   -4.5827 H         1 GTP         0.4770
     48 HN22        0.5109    2.7205   -5.4321 H         1 GTP         0.4770
     49 H49        -1.7420    4.8034    0.4575 H         1 GTP         0.5213
@<TRIPOS>BOND
     1    1    2 2
     2    1    3 1
     3    1    4 1
     4    1    5 1
     5    3   33 1
     6    4   34 1
     7    5    6 1
     8    6    7 2
     9    6    8 1
    10    6    9 1
    11    8   35 1
    12    9   10 1
    13   10   11 2
    14   10   12 1
    15   10   13 1
    16   12   36 1
    17   13   14 1
    18   14   15 1
    19   14   37 1
    20   14   38 1
    21   15   16 1
    22   15   17 1
    23   15   39 1
    24   16   21 1
    25   17   18 1
    26   17   19 1
    27   17   40 1
    28   18   41 1
    29   19   20 1
    30   19   21 1
    31   19   42 1
    32   20   43 1
    33   21   22 1
    34   21   44 1
    35   22   23 ar
    36   22   32 ar
    37   23   24 ar
    38   23   45 1
    39   24   25 ar
    40   24   49 1
    41   25   26 ar
    42   25   32 ar
    43   26   27 2
    44   26   28 ar
    45   28   29 ar
    46   28   46 1
    47   29   30 1
    48   29   31 ar
    49   30   47 1
    50   30   48 1
    51   31   32 ar
@<TRIPOS>SUBSTRUCTURE
     1 GTP         1 GROUP 0 A     ****
@<TRIPOS>MOLECULE
[[5-(2-amino-6-oxo-7,8-dihydro-1~{H}-purin-8-ylium-9-yl)-3,4-dihydroxy-tetrahydrofuran-2-yl]methoxy-hydroxy-phosphoryl] phosphono hydrogen phosphate
   49    51     1     0     0
SMALL
USER_CHARGES

@<TRIPOS>ATOM
      1 PG         -3.5678   -2.2207   -3.4564 P.3       1 GTP         1.7996
      2 O1G        -4.0260   -3.6124   -3.7792 O.2       1 GTP        -0.8112
      3 O2G        -4.2454   -1.0482   -4.3383 O.3       1 GTP        -0.7934
      4 O3G        -3.8311   -1.7468   -1.9337 O.3       1 GTP        -0.7934
      5 O3B        -1.9825   -1.9718   -3.6480 O.3       1 GTP        -0.8067
      6 PB         -0.6931   -2.6614   -2.9611 P.3       1 GTP         1.9429
      7 O1B        -0.6290   -2.5182   -1.4690 O.2       1 GTP        -0.8303
      8 O2B        -0.7304   -4.1826   -3.5067 O.3       1 GTP        -0.7951
      9 O3A         0.5552   -2.0432   -3.7774 O.3       1 GTP        -0.7994
     10 PA          2.1468   -2.2811   -3.6362 P.3       1 GTP         1.7871
     11 O1A         2.5767   -3.7041   -3.8445 O.2       1 GTP        -0.8044
     12 O2A         2.7731   -1.2324   -4.6970 O.3       1 GTP        -0.8076
     13 O5'         2.5234   -1.6624   -2.1893 O.3       1 GTP        -0.5620
     14 C5'         2.2816   -0.2918   -1.9206 C.3       1 GTP         0.1570
     15 C4'         2.7248    0.0226   -0.4980 C.3       1 GTP         0.1395
     16 O4'         2.4697    1.4219   -0.2462 O.3       1 GTP        -0.3978
     17 C3'         1.9404   -0.7419    0.5596 C.3       1 GTP         0.0953
     18 O3'         2.7418   -0.8086    1.7389 O.3       1 GTP        -0.5639
     19 C2'         0.7477    0.1630    0.7858 C.3       1 GTP         0.0640
     20 O2'         0.1373   -0.0577    2.0407 O.3       1 GTP        -0.5724
     21 C1'         1.3733    1.5427    0.6747 C.3       1 GTP         0.4182
     22 N9          0.4520    2.5240    0.1767 N.pl3     1 GTP        -0.4563
     23 C8         -0.8613    2.5511    0.3730 C.ar      1 GTP         0.2386
     24 N7         -1.4346    3.5939   -0.2188 N.pl3     1 GTP        -0.4432
     25 C5         -0.4099    4.2657   -0.8276 C.ar      1 GTP        -0.2050
     26 C6         -0.4554    5.4854   -1.6209 C.ar      1 GTP         0.7599
     27 O6         -1.4907    6.0944   -1.8508 O.2       1 GTP        -0.5606
     28 N1          0.8205    5.8357   -2.0593 N.pl3     1 GTP        -0.5020
     29 C2          1.9890    5.1091   -1.7730 C.ar      1 GTP         0.7674
     30 N2          3.1452    5.6230   -2.2997 N.pl3     1 GTP        -0.9014
     31 N3          1.9765    4.0139   -1.0514 N.2       1 GTP        -0.6718
     32 C4          0.7480    3.6324   -0.6003 C.ar      1 GTP         0.3897
     33 HOG2       -4.1303   -1.0593   -5.3123 H         1 GTP         0.5007
     34 HOG3       -4.7518   -1.7232   -1.5962 H         1 GTP         0.5007
     35 HOB2       -1.4685   -4.7674   -3.2321 H         1 GTP         0.5193
     36 HOA2        3.7478   -1.1363   -4.7496 H         1 GTP         0.4890
     37 H5'         2.8429    0.3147   -2.6388 H         1 GTP         0.0511
     38 H5''        1.2125   -0.0898   -2.0417 H         1 GTP         0.0511
     39 H4'         3.8049   -0.1388   -0.4009 H         1 GTP         0.1554
     40 H3'         1.6783   -1.7629    0.2715 H         1 GTP         0.0796
     41 HO3'        2.2232   -1.2979    2.3953 H         1 GTP         0.4259
     42 H2'        -0.0011    0.0027    0.0003 H         1 GTP         0.0621
     43 HO2'        0.8082    0.1199    2.7232 H         1 GTP         0.4287
     44 H1'         1.7826    1.9024    1.6451 H         1 GTP         0.1525
     45 H8         -1.4050    1.8187    0.9438 H         1 GTP         0.2675
     46 HN1         0.9121    6.6744   -2.6251 H         1 GTP         0.3601
     47 HN21        3.9971    5.1427   -2.1235 H         1 GTP         0.4770
     48 HN22        3.0881    6.4564   -2.8380 H         1 GTP         0.4770
     49 H49        -2.4173    3.8294   -0.2127 H         1 GTP         0.5213
@<TRIPOS>BOND
     1    1    2 2
     2    1    3 1
     3    1    4 1
     4    1    5 1
     5    3   33 1
     6    4   34 1
     7    5    6 1
     8    6    7 2
     9    6    8 1
    10    6    9 1
    11    8   35 1
    12    9   10 1
    13   10   11 2
    14   10   12 1
    15   10   13 1
    16   12   36 1
    17   13   14 1
    18   14   15 1
    19   14   37 1
    20   14   38 1
    21   15   16 1
    22   15   17 1
    23   15   39 1
    24   16   21 1
    25   17   18 1
    26   17   19 1
    27   17   40 1
    28   18   41 1
    29   19   20 1
    30   19   21 1
    31   19   42 1
    32   20   43 1
    33   21   22 1
    34   21   44 1
    35   22   23 ar
    36   22   32 ar
    37   23   24 ar
    38   23   45 1
    39   24   25 ar
    40   24   49 1
    41   25   26 ar
    42   25   32 ar
    43   26   27 2
    44   26   28 ar
    45   28   29 ar
    46   28   46 1
    47   29   30 1
    48   29   31 ar
    49   30   47 1
    50   30   48 1
    51   31   32 ar
@<TRIPOS>SUBSTRUCTURE
     1 GTP         1 GROUP 0 A     ****
@<TRIPOS>MOLECULE
[[5-(2-amino-6-oxo-7,8-dihydro-1~{H}-purin-8-ylium-9-yl)-3,4-dihydroxy-tetrahydrofuran-2-yl]methoxy-hydroxy-phosphoryl] phosphono hydrogen phosphate
   49    51     1     0     0
SMALL
USER_CHARGES

@<TRIPOS>ATOM
      1 PG          4.2765   -1.5472   -8.7134 P.3       1 GTP         1.7996
      2 O1G         5.0423   -2.8279   -8.8703 O.2       1 GTP        -0.8112
      3 O2G         5.0515   -0.2149   -9.1991 O.3       1 GTP        -0.7934
      4 O3G         2.8754   -1.4820   -9.5168 O.3       1 GTP        -0.7934
      5 O3B         3.8439   -1.2025   -7.1950 O.3       1 GTP        -0.8067
      6 PB          2.9251   -1.9973   -6.1298 P.3       1 GTP         1.9429
      7 O1B         1.5124   -2.2326   -6.5769 O.2       1 GTP        -0.8303
      8 O2B         3.7765   -3.3322   -5.8037 O.3       1 GTP        -0.7951
      9 O3A         3.0954   -1.1498   -4.7662 O.3       1 GTP        -0.7994
     10 PA          2.7556    0.3903   -4.4163 P.3       1 GTP         1.7871
     11 O1A         3.4961    1.3896   -5.2568 O.2       1 GTP        -0.8044
     12 O2A         1.1459    0.4566   -4.5634 O.3       1 GTP        -0.8076
     13 O5'         3.0192    0.5132   -2.8246 O.3       1 GTP        -0.5620
     14 C5'         2.2816   -0.2918   -1.9206 C.3       1 GTP         0.1570
     15 C4'         2.7248    0.0226   -0.4980 C.3       1 GTP         0.1395
     16 O4'         2.4697    1.4219   -0.2462 O.3       1 GTP        -0.3978
     17 C3'         1.9404   -0.7419    0.5596 C.3       1 GTP         0.0953
     18 O3'         2.7418   -0.8086    1.7389 O.3       1 GTP        -0.5639
     19 C2'         0.7477    0.1630    0.7858 C.3       1 GTP         0.0640
     20 O2'         0.1373   -0.0577    2.0407 O.3       1 GTP        -0.5724
     21 C1'         1.3733    1.5427    0.6747 C.3       1 GTP         0.4182
     22 N9          0.4520    2.5240    0.1767 N.pl3     1 GTP        -0.4563
     23 C8         -0.8613    2.5511    0.3730 C.ar      1 GTP         0.2386
     24 N7         -1.4346    3.5939   -0.2188 N.pl3     1 GTP        -0.4432
     25 C5         -0.4099    4.2657   -0.8276 C.ar      1 GTP        -0.2050
     26 C6         -0.4554    5.4854   -1.6209 C.ar      1 GTP         0.7599
     27 O6         -1.4907    6.0944   -1.8508 O.2       1 GTP        -0.5606
     28 N1          0.8205    5.8357   -2.0593 N.pl3     1 GTP        -0.5020
     29 C2          1.9890    5.1091   -1.7730 C.ar      1 GTP         0.7674
     30 N2          3.1452    5.6230   -2.2997 N.pl3     1 GTP        -0.9014
     31 N3          1.9765    4.0139   -1.0514 N.2       1 GTP        -0.6718
     32 C4          0.7480    3.6324   -0.6003 C.ar      1 GTP         0.3897
     33 HOG2        5.3372   -0.1458  -10.1348 H         1 GTP         0.5007
     34 HOG3        2.1794   -2.1420   -9.3119 H         1 GTP         0.5007
     35 HOB2        3.9144   -3.9929   -6.5155 H         1 GTP         0.5193
     36 HOA2        0.6824    1.2891   -4.3308 H         1 GTP         0.4890
     37 H5'         1.2150   -0.0785   -2.0448 H         1 GTP         0.0511
     38 H5''        2.4641   -1.3458   -2.1540 H         1 GTP         0.0511
     39 H4'         3.8049   -0.1388   -0.4009 H         1 GTP         0.1554
     40 H3'         1.6783   -1.7629    0.2715 H         1 GTP         0.0796
     41 HO3'        3.5554   -1.2733    1.4914 H         1 GTP         0.4259
     42 H2'        -0.0011    0.0027    0.0003 H         1 GTP         0.0621
     43 HO2'        0.8082    0.1199    2.7232 H         1 GTP         0.4287
     44 H1'         1.7826    1.9024    1.6451 H         1 GTP         0.1525
     45 H8         -1.4050    1.8187    0.9438 H         1 GTP         0.2675
     46 HN1         0.9121    6.6744   -2.6251 H         1 GTP         0.3601
     47 HN21        3.9971    5.1427   -2.1235 H         1 GTP         0.4770
     48 HN22        3.0881    6.4564   -2.8380 H         1 GTP         0.4770
     49 H49        -2.4173    3.8294   -0.2127 H         1 GTP         0.5213
@<TRIPOS>BOND
     1    1    2 2
     2    1    3 1
     3    1    4 1
     4    1    5 1
     5    3   33 1
     6    4   34 1
     7    5    6 1
     8    6    7 2
     9    6    8 1
    10    6    9 1
    11    8   35 1
    12    9   10 1
    13   10   11 2
    14   10   12 1
    15   10   13 1
    16   12   36 1
    17   13   14 1
    18   14   15 1
    19   14   37 1
    20   14   38 1
    21   15   16 1
    22   15   17 1
    23   15   39 1
    24   16   21 1
    25   17   18 1
    26   17   19 1
    27   17   40 1
    28   18   41 1
    29   19   20 1
    30   19   21 1
    31   19   42 1
    32   20   43 1
    33   21   22 1
    34   21   44 1
    35   22   23 ar
    36   22   32 ar
    37   23   24 ar
    38   23   45 1
    39   24   25 ar
    40   24   49 1
    41   25   26 ar
    42   25   32 ar
    43   26   27 2
    44   26   28 ar
    45   28   29 ar
    46   28   46 1
    47   29   30 1
    48   29   31 ar
    49   30   47 1
    50   30   48 1
    51   31   32 ar
@<TRIPOS>SUBSTRUCTURE
     1 GTP         1 GROUP 0 A     ****
@<TRIPOS>MOLECULE
[[5-(2-amino-6-oxo-7,8-dihydro-1~{H}-purin-8-ylium-9-yl)-3,4-dihydroxy-tetrahydrofuran-2-yl]methoxy-hydroxy-phosphoryl] phosphono hydrogen phosphate
   49    51     1     0     0
SMALL
USER_CHARGES

@<TRIPOS>ATOM
      1 PG          3.5522   -5.7548   -4.8932 P.3       1 GTP         1.7996
      2 O1G         4.5998   -6.0172   -5.9347 O.2       1 GTP        -0.8112
      3 O2G         2.1458   -6.5179   -5.1202 O.3       1 GTP        -0.7934
      4 O3G         3.9646   -6.1659   -3.3854 O.3       1 GTP        -0.7934
      5 O3B         3.1229   -4.2039   -4.7451 O.3       1 GTP        -0.8067
      6 PB          3.9719   -2.8827   -4.3653 P.3       1 GTP         1.9429
      7 O1B         4.6249   -2.9268   -3.0153 O.2       1 GTP        -0.8303
      8 O2B         4.9818   -2.6989   -5.6141 O.3       1 GTP        -0.7951
      9 O3A         2.9276   -1.6737   -4.5982 O.3       1 GTP        -0.7994
     10 PA          3.0852   -0.0762   -4.4159 P.3       1 GTP         1.7871
     11 O1A         4.1533    0.5381   -5.2733 O.2       1 GTP        -0.8044
     12 O2A         1.5937    0.4784   -4.7077 O.3       1 GTP        -0.8076
     13 O5'         3.2876    0.1332   -2.8242 O.3       1 GTP        -0.5620
     14 C5'         2.2816   -0.2918   -1.9206 C.3       1 GTP         0.1570
     15 C4'         2.7248    0.0226   -0.4980 C.3       1 GTP         0.1395
     16 O4'         2.4697    1.4219   -0.2462 O.3       1 GTP        -0.3978
     17 C3'         1.9404   -0.7419    0.5596 C.3       1 GTP         0.0953
     18 O3'         2.7418   -0.8086    1.7389 O.3       1 GTP        -0.5639
     19 C2'         0.7477    0.1630    0.7858 C.3       1 GTP         0.0640
     20 O2'         0.1373   -0.0577    2.0407 O.3       1 GTP        -0.5724
     21 C1'         1.3733    1.5427    0.6747 C.3       1 GTP         0.4182
     22 N9          0.4520    2.5240    0.1767 N.pl3     1 GTP        -0.4563
     23 C8         -0.8613    2.5511    0.3730 C.ar      1 GTP         0.2386
     24 N7         -1.4346    3.5939   -0.2188 N.pl3     1 GTP        -0.4432
     25 C5         -0.4099    4.2657   -0.8276 C.ar      1 GTP        -0.2050
     26 C6         -0.4554    5.4854   -1.6209 C.ar      1 GTP         0.7599
     27 O6         -1.4907    6.0944   -1.8508 O.2       1 GTP        -0.5606
     28 N1          0.8205    5.8357   -2.0593 N.pl3     1 GTP        -0.5020
     29 C2          1.9890    5.1091   -1.7730 C.ar      1 GTP         0.7674
     30 N2          3.1452    5.6230   -2.2997 N.pl3     1 GTP        -0.9014
     31 N3          1.9765    4.0139   -1.0514 N.2       1 GTP        -0.6718
     32 C4          0.7480    3.6324   -0.6003 C.ar      1 GTP         0.3897
     33 HOG2        1.6379   -6.3438   -5.9411 H         1 GTP         0.5007
     34 HOG3        4.1893   -7.1010   -3.1927 H         1 GTP         0.5007
     35 HOB2        5.6768   -3.3742   -5.7659 H         1 GTP         0.5193
     36 HOA2        1.2130    0.3658   -5.6046 H         1 GTP         0.4890
     37 H5'         1.3495    0.2323   -2.1554 H         1 GTP         0.0511
     38 H5''        2.1262   -1.3685   -2.0437 H         1 GTP         0.0511
     39 H4'         3.8049   -0.1388   -0.4009 H         1 GTP         0.1554
     40 H3'         1.6783   -1.7629    0.2715 H         1 GTP         0.0796
     41 HO3'        2.2232   -1.2979    2.3953 H         1 GTP         0.4259
     42 H2'        -0.0011    0.0027    0.0003 H         1 GTP         0.0621
     43 HO2'        0.8082    0.1199    2.7232 H         1 GTP         0.4287
     44 H1'         1.7826    1.9024    1.6451 H         1 GTP         0.1525
     45 H8         -1.4050    1.8187    0.9438 H         1 GTP         0.2675
     46 HN1         0.9121    6.6744   -2.6251 H         1 GTP         0.3601
     47 HN21        3.9971    5.1427   -2.1235 H         1 GTP         0.4770
     48 HN22        3.0881    6.4564   -2.8380 H         1 GTP         0.4770
     49 H49        -2.4173    3.8294   -0.2127 H         1 GTP         0.5213
@<TRIPOS>BOND
     1    1    2 2
     2    1    3 1
     3    1    4 1
     4    1    5 1
     5    3   33 1
     6    4   34 1
     7    5    6 1
     8    6    7 2
     9    6    8 1
    10    6    9 1
    11    8   35 1
    12    9   10 1
    13   10   11 2
    14   10   12 1
    15   10   13 1
    16   12   36 1
    17   13   14 1
    18   14   15 1
    19   14   37 1
    20   14   38 1
    21   15   16 1
    22   15   17 1
    23   15   39 1
    24   16   21 1
    25   17   18 1
    26   17   19 1
    27   17   40 1
    28   18   41 1
    29   19   20 1
    30   19   21 1
    31   19   42 1
    32   20   43 1
    33   21   22 1
    34   21   44 1
    35   22   23 ar
    36   22   32 ar
    37   23   24 ar
    38   23   45 1
    39   24   25 ar
    40   24   49 1
    41   25   26 ar
    42   25   32 ar
    43   26   27 2
    44   26   28 ar
    45   28   29 ar
    46   28   46 1
    47   29   30 1
    48   29   31 ar
    49   30   47 1
    50   30   48 1
    51   31   32 ar
@<TRIPOS>SUBSTRUCTURE
     1 GTP         1 GROUP 0 A     ****
@<TRIPOS>MOLECULE
[[5-(2-amino-6-oxo-7,8-dihydro-1~{H}-purin-8-ylium-9-yl)-3,4-dihydroxy-tetrahydrofuran-2-yl]methoxy-hydroxy-phosphoryl] phosphono hydrogen phosphate
   49    51     1     0     0
SMALL
USER_CHARGES

@<TRIPOS>ATOM
      1 PG          3.4678   -4.8666   -6.5494 P.3       1 GTP         1.7996
      2 O1G         2.1049   -5.3708   -6.9230 O.2       1 GTP        -0.8112
      3 O2G         4.3343   -5.8520   -5.6060 O.3       1 GTP        -0.7934
      4 O3G         4.4559   -4.5715   -7.7940 O.3       1 GTP        -0.7934
      5 O3B         3.4703   -3.4675   -5.7406 O.3       1 GTP        -0.8067
      6 PB          2.9251   -1.9973   -6.1298 P.3       1 GTP         1.9429
      7 O1B         3.5597   -1.3990   -7.3506 O.2       1 GTP        -0.8303
      8 O2B         1.3217   -2.1869   -6.2090 O.3       1 GTP        -0.7951
      9 O3A         3.0954   -1.1498   -4.7662 O.3       1 GTP        -0.7994
     10 PA          2.7556    0.3903   -4.4163 P.3       1 GTP         1.7871
     11 O1A         3.4961    1.3896   -5.2568 O.2       1 GTP        -0.8044
     12 O2A         1.1459    0.4566   -4.5634 O.3       1 GTP        -0.8076
     13 O5'         3.0192    0.5132   -2.8246 O.3       1 GTP        -0.5620
     14 C5'         2.2816   -0.2918   -1.9206 C.3       1 GTP         0.1570
     15 C4'         2.7248    0.0226   -0.4980 C.3       1 GTP         0.1395
     16 O4'         2.4697    1.4219   -0.2462 O.3       1 GTP        -0.3978
     17 C3'         1.9404   -0.7419    0.5596 C.3       1 GTP         0.0953
     18 O3'         2.7418   -0.8086    1.7389 O.3       1 GTP        -0.5639
     19 C2'         0.7477    0.1630    0.7858 C.3       1 GTP         0.0640
     20 O2'         0.1373   -0.0577    2.0407 O.3       1 GTP        -0.5724
     21 C1'         1.3733    1.5427    0.6747 C.3       1 GTP         0.4182
     22 N9          0.4520    2.5240    0.1767 N.pl3     1 GTP        -0.4563
     23 C8         -0.8613    2.5511    0.3730 C.ar      1 GTP         0.2386
     24 N7         -1.4346    3.5939   -0.2188 N.pl3     1 GTP        -0.4432
     25 C5         -0.4099    4.2657   -0.8276 C.ar      1 GTP        -0.2050
     26 C6         -0.4554    5.4854   -1.6209 C.ar      1 GTP         0.7599
     27 O6         -1.4907    6.0944   -1.8508 O.2       1 GTP        -0.5606
     28 N1          0.8205    5.8357   -2.0593 N.pl3     1 GTP        -0.5020
     29 C2          1.9890    5.1091   -1.7730 C.ar      1 GTP         0.7674
     30 N2          3.1452    5.6230   -2.2997 N.pl3     1 GTP        -0.9014
     31 N3          1.9765    4.0139   -1.0514 N.2       1 GTP        -0.6718
     32 C4          0.7480    3.6324   -0.6003 C.ar      1 GTP         0.3897
     33 HOG2        4.5527   -6.7510   -5.9317 H         1 GTP         0.5007
     34 HOG3        4.1889   -3.9080   -8.4653 H         1 GTP         0.5007
     35 HOB2        0.7564   -1.3968   -6.3439 H         1 GTP         0.5193
     36 HOA2        0.6824    1.2891   -4.3308 H         1 GTP         0.4890
     37 H5'         1.2150   -0.0785   -2.0448 H         1 GTP         0.0511
     38 H5''        2.4641   -1.3458   -2.1540 H         1 GTP         0.0511
     39 H4'         3.8049   -0.1388   -0.4009 H         1 GTP         0.1554
     40 H3'         1.6783   -1.7629    0.2715 H         1 GTP         0.0796
     41 HO3'        3.5554   -1.2733    1.4914 H         1 GTP         0.4259
     42 H2'        -0.0011    0.0027    0.0003 H         1 GTP         0.0621
     43 HO2'        0.8082    0.1199    2.7232 H         1 GTP         0.4287
     44 H1'         1.7826    1.9024    1.6451 H         1 GTP         0.1525
     45 H8         -1.4050    1.8187    0.9438 H         1 GTP         0.2675
     46 HN1         0.9121    6.6744   -2.6251 H         1 GTP         0.3601
     47 HN21        3.0878    6.4564   -2.8379 H         1 GTP         0.4770
     48 HN22        3.9973    5.1428   -2.1236 H         1 GTP         0.4770
     49 H49        -2.4173    3.8294   -0.2127 H         1 GTP         0.5213
@<TRIPOS>BOND
     1    1    2 2
     2    1    3 1
     3    1    4 1
     4    1    5 1
     5    3   33 1
     6    4   34 1
     7    5    6 1
     8    6    7 2
     9    6    8 1
    10    6    9 1
    11    8   35 1
    12    9   10 1
    13   10   11 2
    14   10   12 1
    15   10   13 1
    16   12   36 1
    17   13   14 1
    18   14   15 1
    19   14   37 1
    20   14   38 1
    21   15   16 1
    22   15   17 1
    23   15   39 1
    24   16   21 1
    25   17   18 1
    26   17   19 1
    27   17   40 1
    28   18   41 1
    29   19   20 1
    30   19   21 1
    31   19   42 1
    32   20   43 1
    33   21   22 1
    34   21   44 1
    35   22   23 ar
    36   22   32 ar
    37   23   24 ar
    38   23   45 1
    39   24   25 ar
    40   24   49 1
    41   25   26 ar
    42   25   32 ar
    43   26   27 2
    44   26   28 ar
    45   28   29 ar
    46   28   46 1
    47   29   30 1
    48   29   31 ar
    49   30   47 1
    50   30   48 1
    51   31   32 ar
@<TRIPOS>SUBSTRUCTURE
     1 GTP         1 GROUP 0 A     ****
@<TRIPOS>MOLECULE
[[5-(2-amino-6-oxo-7,8-dihydro-1~{H}-purin-8-ylium-9-yl)-3,4-dihydroxy-tetrahydrofuran-2-yl]methoxy-hydroxy-phosphoryl] phosphono hydrogen phosphate
   49    51     1     0     0
SMALL
USER_CHARGES

@<TRIPOS>ATOM
      1 PG         -2.8360   -2.4498   -3.2767 P.3       1 GTP         1.7996
      2 O1G        -2.2038   -2.5094   -1.9174 O.2       1 GTP        -0.8112
      3 O2G        -3.2976   -3.8732   -3.8870 O.3       1 GTP        -0.7934
      4 O3G        -4.1732   -1.5470   -3.3733 O.3       1 GTP        -0.7934
      5 O3B        -1.8917   -1.8296   -4.4323 O.3       1 GTP        -0.8067
      6 PB         -0.4555   -2.2895   -5.0121 P.3       1 GTP         1.9429
      7 O1B        -0.4338   -3.6674   -5.6052 O.2       1 GTP        -0.8303
      8 O2B        -0.0461   -1.0970   -6.0238 O.3       1 GTP        -0.7951
      9 O3A         0.5552   -2.0432   -3.7774 O.3       1 GTP        -0.7994
     10 PA          2.1468   -2.2811   -3.6362 P.3       1 GTP         1.7871
     11 O1A         2.5767   -3.7041   -3.8445 O.2       1 GTP        -0.8044
     12 O2A         2.7731   -1.2324   -4.6970 O.3       1 GTP        -0.8076
     13 O5'         2.5234   -1.6624   -2.1893 O.3       1 GTP        -0.5620
     14 C5'         2.2816   -0.2918   -1.9206 C.3       1 GTP         0.1570
     15 C4'         2.7248    0.0226   -0.4980 C.3       1 GTP         0.1395
     16 O4'         2.4697    1.4219   -0.2462 O.3       1 GTP        -0.3978
     17 C3'         1.9404   -0.7419    0.5596 C.3       1 GTP         0.0953
     18 O3'         2.7418   -0.8086    1.7389 O.3       1 GTP        -0.5639
     19 C2'         0.7477    0.1630    0.7858 C.3       1 GTP         0.0640
     20 O2'         0.1373   -0.0577    2.0407 O.3       1 GTP        -0.5724
     21 C1'         1.3733    1.5427    0.6747 C.3       1 GTP         0.4182
     22 N9          0.4520    2.5240    0.1767 N.pl3     1 GTP        -0.4563
     23 C8         -0.8613    2.5511    0.3730 C.ar      1 GTP         0.2386
     24 N7         -1.4346    3.5939   -0.2188 N.pl3     1 GTP        -0.4432
     25 C5         -0.4099    4.2657   -0.8276 C.ar      1 GTP        -0.2050
     26 C6         -0.4554    5.4854   -1.6209 C.ar      1 GTP         0.7599
     27 O6         -1.4907    6.0944   -1.8508 O.2       1 GTP        -0.5606
     28 N1          0.8205    5.8357   -2.0593 N.pl3     1 GTP        -0.5020
     29 C2          1.9890    5.1091   -1.7730 C.ar      1 GTP         0.7674
     30 N2          3.1452    5.6230   -2.2997 N.pl3     1 GTP        -0.9014
     31 N3          1.9765    4.0139   -1.0514 N.2       1 GTP        -0.6718
     32 C4          0.7480    3.6324   -0.6003 C.ar      1 GTP         0.3897
     33 HOG2       -3.9597   -4.4073   -3.3987 H         1 GTP         0.5007
     34 HOG3       -4.9465   -1.7829   -2.8179 H         1 GTP         0.5007
     35 HOB2        0.8443   -1.1082   -6.4351 H         1 GTP         0.5193
     36 HOA2        3.7478   -1.1363   -4.7496 H         1 GTP         0.4890
     37 H5'         2.8429    0.3147   -2.6388 H         1 GTP         0.0511
     38 H5''        1.2125   -0.0898   -2.0417 H         1 GTP         0.0511
     39 H4'         3.8049   -0.1388   -0.4009 H         1 GTP         0.1554
     40 H3'         1.6783   -1.7629    0.2715 H         1 GTP         0.0796
     41 HO3'        3.5554   -1.2733    1.4914 H         1 GTP         0.4259
     42 H2'        -0.0011    0.0027    0.0003 H         1 GTP         0.0621
     43 HO2'        0.8082    0.1199    2.7232 H         1 GTP         0.4287
     44 H1'         1.7826    1.9024    1.6451 H         1 GTP         0.1525
     45 H8         -1.4050    1.8187    0.9438 H         1 GTP         0.2675
     46 HN1         0.9121    6.6744   -2.6251 H         1 GTP         0.3601
     47 HN21        3.9971    5.1427   -2.1235 H         1 GTP         0.4770
     48 HN22        3.0881    6.4564   -2.8380 H         1 GTP         0.4770
     49 H49        -2.4173    3.8294   -0.2127 H         1 GTP         0.5213
@<TRIPOS>BOND
     1    1    2 2
     2    1    3 1
     3    1    4 1
     4    1    5 1
     5    3   33 1
     6    4   34 1
     7    5    6 1
     8    6    7 2
     9    6    8 1
    10    6    9 1
    11    8   35 1
    12    9   10 1
    13   10   11 2
    14   10   12 1
    15   10   13 1
    16   12   36 1
    17   13   14 1
    18   14   15 1
    19   14   37 1
    20   14   38 1
    21   15   16 1
    22   15   17 1
    23   15   39 1
    24   16   21 1
    25   17   18 1
    26   17   19 1
    27   17   40 1
    28   18   41 1
    29   19   20 1
    30   19   21 1
    31   19   42 1
    32   20   43 1
    33   21   22 1
    34   21   44 1
    35   22   23 ar
    36   22   32 ar
    37   23   24 ar
    38   23   45 1
    39   24   25 ar
    40   24   49 1
    41   25   26 ar
    42   25   32 ar
    43   26   27 2
    44   26   28 ar
    45   28   29 ar
    46   28   46 1
    47   29   30 1
    48   29   31 ar
    49   30   47 1
    50   30   48 1
    51   31   32 ar
@<TRIPOS>SUBSTRUCTURE
     1 GTP         1 GROUP 0 A     ****
@<TRIPOS>MOLECULE
[[5-(2-amino-6-oxo-7,8-dihydro-1~{H}-purin-8-ylium-9-yl)-3,4-dihydroxy-tetrahydrofuran-2-yl]methoxy-hydroxy-phosphoryl] phosphono hydrogen phosphate
   49    51     1     0     0
SMALL
USER_CHARGES

@<TRIPOS>ATOM
      1 PG          2.1750   -5.4917   -6.0085 P.3       1 GTP         1.7996
      2 O1G         2.9561   -5.8428   -7.2405 O.2       1 GTP        -0.8112
      3 O2G         0.5778   -5.3609   -6.2169 O.3       1 GTP        -0.7934
      4 O3G         2.3108   -6.5414   -4.7869 O.3       1 GTP        -0.7934
      5 O3B         2.5856   -4.0843   -5.3287 O.3       1 GTP        -0.8067
      6 PB          2.5668   -2.5700   -5.8916 P.3       1 GTP         1.9429
      7 O1B         3.4259   -2.3424   -7.1004 O.2       1 GTP        -0.8303
      8 O2B         0.9949   -2.2510   -6.0930 O.3       1 GTP        -0.7951
      9 O3A         2.9276   -1.6737   -4.5982 O.3       1 GTP        -0.7994
     10 PA          3.0852   -0.0762   -4.4159 P.3       1 GTP         1.7871
     11 O1A         4.1533    0.5381   -5.2733 O.2       1 GTP        -0.8044
     12 O2A         1.5937    0.4784   -4.7077 O.3       1 GTP        -0.8076
     13 O5'         3.2876    0.1332   -2.8242 O.3       1 GTP        -0.5620
     14 C5'         2.2816   -0.2918   -1.9206 C.3       1 GTP         0.1570
     15 C4'         2.7248    0.0226   -0.4980 C.3       1 GTP         0.1395
     16 O4'         2.4697    1.4219   -0.2462 O.3       1 GTP        -0.3978
     17 C3'         1.9404   -0.7419    0.5596 C.3       1 GTP         0.0953
     18 O3'         2.7418   -0.8086    1.7389 O.3       1 GTP        -0.5639
     19 C2'         0.7477    0.1630    0.7858 C.3       1 GTP         0.0640
     20 O2'         0.1373   -0.0577    2.0407 O.3       1 GTP        -0.5724
     21 C1'         1.3733    1.5427    0.6747 C.3       1 GTP         0.4182
     22 N9          0.4520    2.5240    0.1767 N.pl3     1 GTP        -0.4563
     23 C8         -0.8613    2.5511    0.3730 C.ar      1 GTP         0.2386
     24 N7         -1.4346    3.5939   -0.2188 N.pl3     1 GTP        -0.4432
     25 C5         -0.4099    4.2657   -0.8276 C.ar      1 GTP        -0.2050
     26 C6         -0.4554    5.4854   -1.6209 C.ar      1 GTP         0.7599
     27 O6         -1.4907    6.0944   -1.8508 O.2       1 GTP        -0.5606
     28 N1          0.8205    5.8357   -2.0593 N.pl3     1 GTP        -0.5020
     29 C2          1.9890    5.1091   -1.7730 C.ar      1 GTP         0.7674
     30 N2          3.1452    5.6230   -2.2997 N.pl3     1 GTP        -0.9014
     31 N3          1.9765    4.0139   -1.0514 N.2       1 GTP        -0.6718
     32 C4          0.7480    3.6324   -0.6003 C.ar      1 GTP         0.3897
     33 HOG2        0.0753   -6.1394   -6.5386 H         1 GTP         0.5007
     34 HOG3        2.0314   -7.4712   -4.9265 H         1 GTP         0.5007
     35 HOB2        0.4931   -2.7479   -6.7737 H         1 GTP         0.5193
     36 HOA2        1.4122    1.4351   -4.5904 H         1 GTP         0.4890
     37 H5'         1.3495    0.2323   -2.1554 H         1 GTP         0.0511
     38 H5''        2.1262   -1.3685   -2.0437 H         1 GTP         0.0511
     39 H4'         3.8049   -0.1388   -0.4009 H         1 GTP         0.1554
     40 H3'         1.6783   -1.7629    0.2715 H         1 GTP         0.0796
     41 HO3'        2.2232   -1.2979    2.3953 H         1 GTP         0.4259
     42 H2'        -0.0011    0.0027    0.0003 H         1 GTP         0.0621
     43 HO2'        0.8082    0.1199    2.7232 H         1 GTP         0.4287
     44 H1'         1.7826    1.9024    1.6451 H         1 GTP         0.1525
     45 H8         -1.4050    1.8187    0.9438 H         1 GTP         0.2675
     46 HN1         0.9121    6.6744   -2.6251 H         1 GTP         0.3601
     47 HN21        3.9971    5.1427   -2.1235 H         1 GTP         0.4770
     48 HN22        3.0881    6.4564   -2.8380 H         1 GTP         0.4770
     49 H49        -2.4173    3.8294   -0.2127 H         1 GTP         0.5213
@<TRIPOS>BOND
     1    1    2 2
     2    1    3 1
     3    1    4 1
     4    1    5 1
     5    3   33 1
     6    4   34 1
     7    5    6 1
     8    6    7 2
     9    6    8 1
    10    6    9 1
    11    8   35 1
    12    9   10 1
    13   10   11 2
    14   10   12 1
    15   10   13 1
    16   12   36 1
    17   13   14 1
    18   14   15 1
    19   14   37 1
    20   14   38 1
    21   15   16 1
    22   15   17 1
    23   15   39 1
    24   16   21 1
    25   17   18 1
    26   17   19 1
    27   17   40 1
    28   18   41 1
    29   19   20 1
    30   19   21 1
    31   19   42 1
    32   20   43 1
    33   21   22 1
    34   21   44 1
    35   22   23 ar
    36   22   32 ar
    37   23   24 ar
    38   23   45 1
    39   24   25 ar
    40   24   49 1
    41   25   26 ar
    42   25   32 ar
    43   26   27 2
    44   26   28 ar
    45   28   29 ar
    46   28   46 1
    47   29   30 1
    48   29   31 ar
    49   30   47 1
    50   30   48 1
    51   31   32 ar
@<TRIPOS>SUBSTRUCTURE
     1 GTP         1 GROUP 0 A     ****
@<TRIPOS>MOLECULE
[[5-(2-amino-6-oxo-7,8-dihydro-1~{H}-purin-8-ylium-9-yl)-3,4-dihydroxy-tetrahydrofuran-2-yl]methoxy-hydroxy-phosphoryl] phosphono hydrogen phosphate
   49    51     1     0     0
SMALL
USER_CHARGES

@<TRIPOS>ATOM
      1 PG         -1.1464   -4.8558   -6.2928 P.3       1 GTP         1.7996
      2 O1G        -1.0707   -4.4879   -7.7454 O.2       1 GTP        -0.8112
      3 O2G        -2.6340   -4.8748   -5.6615 O.3       1 GTP        -0.7934
      4 O3G        -0.5616   -6.3166   -5.9229 O.3       1 GTP        -0.7934
      5 O3B        -0.3275   -3.8731   -5.3052 O.3       1 GTP        -0.8067
      6 PB         -0.4555   -2.2895   -5.0121 P.3       1 GTP         1.9429
      7 O1B        -0.2426   -1.4133   -6.2113 O.2       1 GTP        -0.8303
      8 O2B        -1.8987   -2.1429   -4.2987 O.3       1 GTP        -0.7951
      9 O3A         0.5552   -2.0432   -3.7774 O.3       1 GTP        -0.7994
     10 PA          2.1468   -2.2811   -3.6362 P.3       1 GTP         1.7871
     11 O1A         2.5767   -3.7041   -3.8445 O.2       1 GTP        -0.8044
     12 O2A         2.7731   -1.2324   -4.6970 O.3       1 GTP        -0.8076
     13 O5'         2.5234   -1.6624   -2.1893 O.3       1 GTP        -0.5620
     14 C5'         2.2816   -0.2918   -1.9206 C.3       1 GTP         0.1570
     15 C4'         2.7248    0.0226   -0.4980 C.3       1 GTP         0.1395
     16 O4'         2.4697    1.4219   -0.2462 O.3       1 GTP        -0.3978
     17 C3'         1.9404   -0.7419    0.5596 C.3       1 GTP         0.0953
     18 O3'         2.7418   -0.8086    1.7389 O.3       1 GTP        -0.5639
     19 C2'         0.7477    0.1630    0.7858 C.3       1 GTP         0.0640
     20 O2'         0.1373   -0.0577    2.0407 O.3       1 GTP        -0.5724
     21 C1'         1.3733    1.5427    0.6747 C.3       1 GTP         0.4182
     22 N9          0.4520    2.5240    0.1767 N.pl3     1 GTP        -0.4563
     23 C8          0.0862    3.6482    0.7820 C.ar      1 GTP         0.2386
     24 N7         -0.7824    4.3469    0.0582 N.pl3     1 GTP        -0.4432
     25 C5         -0.9737    3.6092   -1.0781 C.ar      1 GTP        -0.2050
     26 C6         -1.8237    3.8942   -2.2250 C.ar      1 GTP         0.7599
     27 O6         -2.5148    4.8996   -2.3108 O.2       1 GTP        -0.5606
     28 N1         -1.7276    2.8778   -3.1740 N.pl3     1 GTP        -0.5020
     29 C2         -0.9198    1.7357   -3.0394 C.ar      1 GTP         0.7674
     30 N2         -0.9680    0.8541   -4.0876 N.pl3     1 GTP        -0.9014
     31 N3         -0.1700    1.5254   -1.9839 N.2       1 GTP        -0.6718
     32 C4         -0.2323    2.4951   -1.0278 C.ar      1 GTP         0.3897
     33 HOG2       -3.3035   -5.4828   -6.0411 H         1 GTP         0.5007
     34 HOG3       -0.9653   -7.1086   -6.3374 H         1 GTP         0.5007
     35 HOB2       -2.7072   -2.3393   -4.8183 H         1 GTP         0.5193
     36 HOA2        3.7478   -1.1363   -4.7496 H         1 GTP         0.4890
     37 H5'         2.8429    0.3147   -2.6388 H         1 GTP         0.0511
     38 H5''        1.2125   -0.0898   -2.0417 H         1 GTP         0.0511
     39 H4'         3.8049   -0.1388   -0.4009 H         1 GTP         0.1554
     40 H3'         1.6783   -1.7629    0.2715 H         1 GTP         0.0796
     41 HO3'        2.2232   -1.2979    2.3953 H         1 GTP         0.4259
     42 H2'        -0.0011    0.0027    0.0003 H         1 GTP         0.0621
     43 HO2'       -0.6141    0.5574    2.1082 H         1 GTP         0.4287
     44 H1'         1.7826    1.9024    1.6451 H         1 GTP         0.1525
     45 H8          0.4470    3.9641    1.7452 H         1 GTP         0.2675
     46 HN1        -2.2799    2.9689   -4.0217 H         1 GTP         0.3601
     47 HN21       -1.5562    1.0710   -4.8587 H         1 GTP         0.4770
     48 HN22       -0.4131    0.0312   -4.0371 H         1 GTP         0.4770
     49 H49        -1.2034    5.2317    0.3050 H         1 GTP         0.5213
@<TRIPOS>BOND
     1    1    2 2
     2    1    3 1
     3    1    4 1
     4    1    5 1
     5    3   33 1
     6    4   34 1
     7    5    6 1
     8    6    7 2
     9    6    8 1
    10    6    9 1
    11    8   35 1
    12    9   10 1
    13   10   11 2
    14   10   12 1
    15   10   13 1
    16   12   36 1
    17   13   14 1
    18   14   15 1
    19   14   37 1
    20   14   38 1
    21   15   16 1
    22   15   17 1
    23   15   39 1
    24   16   21 1
    25   17   18 1
    26   17   19 1
    27   17   40 1
    28   18   41 1
    29   19   20 1
    30   19   21 1
    31   19   42 1
    32   20   43 1
    33   21   22 1
    34   21   44 1
    35   22   23 ar
    36   22   32 ar
    37   23   24 ar
    38   23   45 1
    39   24   25 ar
    40   24   49 1
    41   25   26 ar
    42   25   32 ar
    43   26   27 2
    44   26   28 ar
    45   28   29 ar
    46   28   46 1
    47   29   30 1
    48   29   31 ar
    49   30   47 1
    50   30   48 1
    51   31   32 ar
@<TRIPOS>SUBSTRUCTURE
     1 GTP         1 GROUP 0 A     ****
@<TRIPOS>MOLECULE
[[5-(2-amino-6-oxo-7,8-dihydro-1~{H}-purin-8-ylium-9-yl)-3,4-dihydroxy-tetrahydrofuran-2-yl]methoxy-hydroxy-phosphoryl] phosphono hydrogen phosphate
   49    51     1     0     0
SMALL
USER_CHARGES

@<TRIPOS>ATOM
      1 PG          2.0923   -4.9730   -4.5629 P.3       1 GTP         1.7996
      2 O1G         3.0777   -5.6328   -5.4820 O.2       1 GTP        -0.8112
      3 O2G         0.9126   -5.9305   -4.0124 O.3       1 GTP        -0.7934
      4 O3G         2.7252   -4.3425   -3.2158 O.3       1 GTP        -0.7934
      5 O3B         1.2966   -3.7251   -5.2120 O.3       1 GTP        -0.8067
      6 PB          1.8105   -2.3227   -5.8280 P.3       1 GTP         1.9429
      7 O1B         2.7399   -2.4578   -6.9980 O.2       1 GTP        -0.8303
      8 O2B         0.4470   -1.5055   -6.1214 O.3       1 GTP        -0.7951
      9 O3A         2.4047   -1.5353   -4.5499 O.3       1 GTP        -0.7994
     10 PA          3.0852   -0.0762   -4.4159 P.3       1 GTP         1.7871
     11 O1A         4.3287    0.1001   -5.2380 O.2       1 GTP        -0.8044
     12 O2A         1.8801    0.9311   -4.8037 O.3       1 GTP        -0.8076
     13 O5'         3.2876    0.1332   -2.8242 O.3       1 GTP        -0.5620
     14 C5'         2.2816   -0.2918   -1.9206 C.3       1 GTP         0.1570
     15 C4'         2.7248    0.0226   -0.4980 C.3       1 GTP         0.1395
     16 O4'         2.4697    1.4219   -0.2462 O.3       1 GTP        -0.3978
     17 C3'         1.9404   -0.7419    0.5596 C.3       1 GTP         0.0953
     18 O3'         2.7418   -0.8086    1.7389 O.3       1 GTP        -0.5639
     19 C2'         0.7477    0.1630    0.7858 C.3       1 GTP         0.0640
     20 O2'         0.1373   -0.0577    2.0407 O.3       1 GTP        -0.5724
     21 C1'         1.3733    1.5427    0.6747 C.3       1 GTP         0.4182
     22 N9          0.4520    2.5240    0.1767 N.pl3     1 GTP        -0.4563
     23 C8          0.0862    3.6482    0.7820 C.ar      1 GTP         0.2386
     24 N7         -0.7824    4.3469    0.0582 N.pl3     1 GTP        -0.4432
     25 C5         -0.9737    3.6092   -1.0781 C.ar      1 GTP        -0.2050
     26 C6         -1.8237    3.8942   -2.2250 C.ar      1 GTP         0.7599
     27 O6         -2.5148    4.8996   -2.3108 O.2       1 GTP        -0.5606
     28 N1         -1.7276    2.8778   -3.1740 N.pl3     1 GTP        -0.5020
     29 C2         -0.9198    1.7357   -3.0394 C.ar      1 GTP         0.7674
     30 N2         -0.9680    0.8541   -4.0876 N.pl3     1 GTP        -0.9014
     31 N3         -0.1700    1.5254   -1.9839 N.2       1 GTP        -0.6718
     32 C4         -0.2323    2.4951   -1.0278 C.ar      1 GTP         0.3897
     33 HOG2        1.1508   -6.7246   -3.4884 H         1 GTP         0.5007
     34 HOG3        3.4060   -3.6408   -3.2944 H         1 GTP         0.5007
     35 HOB2        0.5073   -0.5729   -6.4194 H         1 GTP         0.5193
     36 HOA2        2.0279    1.8978   -4.7296 H         1 GTP         0.4890
     37 H5'         1.3495    0.2323   -2.1554 H         1 GTP         0.0511
     38 H5''        2.1262   -1.3685   -2.0437 H         1 GTP         0.0511
     39 H4'         3.8049   -0.1388   -0.4009 H         1 GTP         0.1554
     40 H3'         1.6783   -1.7629    0.2715 H         1 GTP         0.0796
     41 HO3'        2.2232   -1.2979    2.3953 H         1 GTP         0.4259
     42 H2'        -0.0011    0.0027    0.0003 H         1 GTP         0.0621
     43 HO2'       -0.6141    0.5574    2.1082 H         1 GTP         0.4287
     44 H1'         1.7826    1.9024    1.6451 H         1 GTP         0.1525
     45 H8          0.4470    3.9641    1.7452 H         1 GTP         0.2675
     46 HN1        -2.2799    2.9689   -4.0217 H         1 GTP         0.3601
     47 HN21       -1.5562    1.0710   -4.8587 H         1 GTP         0.4770
     48 HN22       -0.4131    0.0312   -4.0371 H         1 GTP         0.4770
     49 H49        -1.2034    5.2317    0.3050 H         1 GTP         0.5213
@<TRIPOS>BOND
     1    1    2 2
     2    1    3 1
     3    1    4 1
     4    1    5 1
     5    3   33 1
     6    4   34 1
     7    5    6 1
     8    6    7 2
     9    6    8 1
    10    6    9 1
    11    8   35 1
    12    9   10 1
    13   10   11 2
    14   10   12 1
    15   10   13 1
    16   12   36 1
    17   13   14 1
    18   14   15 1
    19   14   37 1
    20   14   38 1
    21   15   16 1
    22   15   17 1
    23   15   39 1
    24   16   21 1
    25   17   18 1
    26   17   19 1
    27   17   40 1
    28   18   41 1
    29   19   20 1
    30   19   21 1
    31   19   42 1
    32   20   43 1
    33   21   22 1
    34   21   44 1
    35   22   23 ar
    36   22   32 ar
    37   23   24 ar
    38   23   45 1
    39   24   25 ar
    40   24   49 1
    41   25   26 ar
    42   25   32 ar
    43   26   27 2
    44   26   28 ar
    45   28   29 ar
    46   28   46 1
    47   29   30 1
    48   29   31 ar
    49   30   47 1
    50   30   48 1
    51   31   32 ar
@<TRIPOS>SUBSTRUCTURE
     1 GTP         1 GROUP 0 A     ****
@<TRIPOS>MOLECULE
[[5-(2-amino-6-oxo-7,8-dihydro-1~{H}-purin-8-ylium-9-yl)-3,4-dihydroxy-tetrahydrofuran-2-yl]methoxy-hydroxy-phosphoryl] phosphono hydrogen phosphate
   49    51     1     0     0
SMALL
USER_CHARGES

@<TRIPOS>ATOM
      1 PG         -2.1979   -1.4271   -6.2726 P.3       1 GTP         1.7996
      2 O1G        -3.3007   -1.2246   -5.2757 O.2       1 GTP        -0.8112
      3 O2G        -2.2179   -2.8457   -7.0465 O.3       1 GTP        -0.7934
      4 O3G        -2.1488   -0.3444   -7.4718 O.3       1 GTP        -0.7934
      5 O3B        -0.7073   -1.3540   -5.6526 O.3       1 GTP        -0.8067
      6 PB          0.0292   -2.2300   -4.5123 P.3       1 GTP         1.9429
      7 O1B        -0.6325   -2.1861   -3.1665 O.2       1 GTP        -0.8303
      8 O2B         0.1523   -3.7005   -5.1724 O.3       1 GTP        -0.7951
      9 O3A         1.5582   -1.7135   -4.5572 O.3       1 GTP        -0.7994
     10 PA          2.8567   -2.1438   -3.6977 P.3       1 GTP         1.7871
     11 O1A         3.2289   -3.5921   -3.8294 O.2       1 GTP        -0.8044
     12 O2A         3.9952   -1.1130   -4.2062 O.3       1 GTP        -0.8076
     13 O5'         2.5234   -1.6624   -2.1893 O.3       1 GTP        -0.5620
     14 C5'         2.2816   -0.2918   -1.9206 C.3       1 GTP         0.1570
     15 C4'         2.7248    0.0226   -0.4980 C.3       1 GTP         0.1395
     16 O4'         2.4697    1.4219   -0.2462 O.3       1 GTP        -0.3978
     17 C3'         1.9404   -0.7419    0.5596 C.3       1 GTP         0.0953
     18 O3'         2.7418   -0.8086    1.7389 O.3       1 GTP        -0.5639
     19 C2'         0.7477    0.1630    0.7858 C.3       1 GTP         0.0640
     20 O2'         0.1373   -0.0577    2.0407 O.3       1 GTP        -0.5724
     21 C1'         1.3733    1.5427    0.6747 C.3       1 GTP         0.4182
     22 N9          0.4520    2.5240    0.1767 N.pl3     1 GTP        -0.4563
     23 C8          0.0862    3.6482    0.7820 C.ar      1 GTP         0.2386
     24 N7         -0.7824    4.3469    0.0582 N.pl3     1 GTP        -0.4432
     25 C5         -0.9737    3.6092   -1.0781 C.ar      1 GTP        -0.2050
     26 C6         -1.8237    3.8942   -2.2250 C.ar      1 GTP         0.7599
     27 O6         -2.5148    4.8996   -2.3108 O.2       1 GTP        -0.5606
     28 N1         -1.7276    2.8778   -3.1740 N.pl3     1 GTP        -0.5020
     29 C2         -0.9198    1.7357   -3.0394 C.ar      1 GTP         0.7674
     30 N2         -0.9680    0.8541   -4.0876 N.pl3     1 GTP        -0.9014
     31 N3         -0.1700    1.5254   -1.9839 N.2       1 GTP        -0.6718
     32 C4         -0.2323    2.4951   -1.0278 C.ar      1 GTP         0.3897
     33 HOG2       -3.0015   -3.0807   -7.5876 H         1 GTP         0.5007
     34 HOG3       -2.9244   -0.2587   -8.0662 H         1 GTP         0.5007
     35 HOB2       -0.6662   -4.2105   -5.3511 H         1 GTP         0.5193
     36 HOA2        4.8757   -1.1284   -3.7745 H         1 GTP         0.4890
     37 H5'         2.8429    0.3147   -2.6388 H         1 GTP         0.0511
     38 H5''        1.2125   -0.0898   -2.0417 H         1 GTP         0.0511
     39 H4'         3.8049   -0.1388   -0.4009 H         1 GTP         0.1554
     40 H3'         1.6783   -1.7629    0.2715 H         1 GTP         0.0796
     41 HO3'        2.2232   -1.2979    2.3953 H         1 GTP         0.4259
     42 H2'        -0.0011    0.0027    0.0003 H         1 GTP         0.0621
     43 HO2'       -0.6141    0.5574    2.1082 H         1 GTP         0.4287
     44 H1'         1.7826    1.9024    1.6451 H         1 GTP         0.1525
     45 H8          0.4470    3.9641    1.7452 H         1 GTP         0.2675
     46 HN1        -2.2799    2.9689   -4.0217 H         1 GTP         0.3601
     47 HN21       -0.4130    0.0313   -4.0369 H         1 GTP         0.4770
     48 HN22       -1.5561    1.0708   -4.8588 H         1 GTP         0.4770
     49 H49        -1.2034    5.2317    0.3050 H         1 GTP         0.5213
@<TRIPOS>BOND
     1    1    2 2
     2    1    3 1
     3    1    4 1
     4    1    5 1
     5    3   33 1
     6    4   34 1
     7    5    6 1
     8    6    7 2
     9    6    8 1
    10    6    9 1
    11    8   35 1
    12    9   10 1
    13   10   11 2
    14   10   12 1
    15   10   13 1
    16   12   36 1
    17   13   14 1
    18   14   15 1
    19   14   37 1
    20   14   38 1
    21   15   16 1
    22   15   17 1
    23   15   39 1
    24   16   21 1
    25   17   18 1
    26   17   19 1
    27   17   40 1
    28   18   41 1
    29   19   20 1
    30   19   21 1
    31   19   42 1
    32   20   43 1
    33   21   22 1
    34   21   44 1
    35   22   23 ar
    36   22   32 ar
    37   23   24 ar
    38   23   45 1
    39   24   25 ar
    40   24   49 1
    41   25   26 ar
    42   25   32 ar
    43   26   27 2
    44   26   28 ar
    45   28   29 ar
    46   28   46 1
    47   29   30 1
    48   29   31 ar
    49   30   47 1
    50   30   48 1
    51   31   32 ar
@<TRIPOS>SUBSTRUCTURE
     1 GTP         1 GROUP 0 A     ****
@<TRIPOS>MOLECULE
[[5-(2-amino-6-oxo-7,8-dihydro-1~{H}-purin-8-ylium-9-yl)-3,4-dihydroxy-tetrahydrofuran-2-yl]methoxy-hydroxy-phosphoryl] phosphono hydrogen phosphate
   49    51     1     0     0
SMALL
USER_CHARGES

@<TRIPOS>ATOM
      1 PG          3.2738   -3.2451   -8.2179 P.3       1 GTP         1.7996
      2 O1G         3.0776   -4.7297   -8.1264 O.2       1 GTP        -0.8112
      3 O2G         4.7347   -2.7709   -8.7205 O.3       1 GTP        -0.7934
      4 O3G         2.2635   -2.4792   -9.2206 O.3       1 GTP        -0.7934
      5 O3B         3.0763   -2.4522   -6.8236 O.3       1 GTP        -0.8067
      6 PB          1.8105   -2.3227   -5.8280 P.3       1 GTP         1.9429
      7 O1B         0.5854   -1.7207   -6.4505 O.2       1 GTP        -0.8303
      8 O2B         1.6228   -3.8180   -5.2433 O.3       1 GTP        -0.7951
      9 O3A         2.4047   -1.5353   -4.5499 O.3       1 GTP        -0.7994
     10 PA          3.0852   -0.0762   -4.4159 P.3       1 GTP         1.7871
     11 O1A         4.3287    0.1001   -5.2380 O.2       1 GTP        -0.8044
     12 O2A         1.8801    0.9311   -4.8037 O.3       1 GTP        -0.8076
     13 O5'         3.2876    0.1332   -2.8242 O.3       1 GTP        -0.5620
     14 C5'         2.2816   -0.2918   -1.9206 C.3       1 GTP         0.1570
     15 C4'         2.7248    0.0226   -0.4980 C.3       1 GTP         0.1395
     16 O4'         2.4697    1.4219   -0.2462 O.3       1 GTP        -0.3978
     17 C3'         1.9404   -0.7419    0.5596 C.3       1 GTP         0.0953
     18 O3'         2.7418   -0.8086    1.7389 O.3       1 GTP        -0.5639
     19 C2'         0.7477    0.1630    0.7858 C.3       1 GTP         0.0640
     20 O2'         0.1373   -0.0577    2.0407 O.3       1 GTP        -0.5724
     21 C1'         1.3733    1.5427    0.6747 C.3       1 GTP         0.4182
     22 N9          0.4520    2.5240    0.1767 N.pl3     1 GTP        -0.4563
     23 C8          0.0862    3.6482    0.7820 C.ar      1 GTP         0.2386
     24 N7         -0.7824    4.3469    0.0582 N.pl3     1 GTP        -0.4432
     25 C5         -0.9737    3.6092   -1.0781 C.ar      1 GTP        -0.2050
     26 C6         -1.8237    3.8942   -2.2250 C.ar      1 GTP         0.7599
     27 O6         -2.5148    4.8996   -2.3108 O.2       1 GTP        -0.5606
     28 N1         -1.7276    2.8778   -3.1740 N.pl3     1 GTP        -0.5020
     29 C2         -0.9198    1.7357   -3.0394 C.ar      1 GTP         0.7674
     30 N2         -0.9680    0.8541   -4.0876 N.pl3     1 GTP        -0.9014
     31 N3         -0.1700    1.5254   -1.9839 N.2       1 GTP        -0.6718
     32 C4         -0.2323    2.4951   -1.0278 C.ar      1 GTP         0.3897
     33 HOG2        5.0472   -3.0534   -9.6063 H         1 GTP         0.5007
     34 HOG3        1.2985   -2.5300   -9.0524 H         1 GTP         0.5007
     35 HOB2        1.3529   -4.5362   -5.8544 H         1 GTP         0.5193
     36 HOA2        2.0279    1.8978   -4.7296 H         1 GTP         0.4890
     37 H5'         1.3495    0.2323   -2.1554 H         1 GTP         0.0511
     38 H5''        2.1262   -1.3685   -2.0437 H         1 GTP         0.0511
     39 H4'         3.8049   -0.1388   -0.4009 H         1 GTP         0.1554
     40 H3'         1.6783   -1.7629    0.2715 H         1 GTP         0.0796
     41 HO3'        2.2232   -1.2979    2.3953 H         1 GTP         0.4259
     42 H2'        -0.0011    0.0027    0.0003 H         1 GTP         0.0621
     43 HO2'       -0.6141    0.5574    2.1082 H         1 GTP         0.4287
     44 H1'         1.7826    1.9024    1.6451 H         1 GTP         0.1525
     45 H8          0.4470    3.9641    1.7452 H         1 GTP         0.2675
     46 HN1        -2.2799    2.9689   -4.0217 H         1 GTP         0.3601
     47 HN21       -0.4130    0.0313   -4.0369 H         1 GTP         0.4770
     48 HN22       -1.5561    1.0708   -4.8588 H         1 GTP         0.4770
     49 H49        -1.2034    5.2317    0.3050 H         1 GTP         0.5213
@<TRIPOS>BOND
     1    1    2 2
     2    1    3 1
     3    1    4 1
     4    1    5 1
     5    3   33 1
     6    4   34 1
     7    5    6 1
     8    6    7 2
     9    6    8 1
    10    6    9 1
    11    8   35 1
    12    9   10 1
    13   10   11 2
    14   10   12 1
    15   10   13 1
    16   12   36 1
    17   13   14 1
    18   14   15 1
    19   14   37 1
    20   14   38 1
    21   15   16 1
    22   15   17 1
    23   15   39 1
    24   16   21 1
    25   17   18 1
    26   17   19 1
    27   17   40 1
    28   18   41 1
    29   19   20 1
    30   19   21 1
    31   19   42 1
    32   20   43 1
    33   21   22 1
    34   21   44 1
    35   22   23 ar
    36   22   32 ar
    37   23   24 ar
    38   23   45 1
    39   24   25 ar
    40   24   49 1
    41   25   26 ar
    42   25   32 ar
    43   26   27 2
    44   26   28 ar
    45   28   29 ar
    46   28   46 1
    47   29   30 1
    48   29   31 ar
    49   30   47 1
    50   30   48 1
    51   31   32 ar
@<TRIPOS>SUBSTRUCTURE
     1 GTP         1 GROUP 0 A     ****
@<TRIPOS>MOLECULE
[[5-(2-amino-6-oxo-7,8-dihydro-1~{H}-purin-8-ylium-9-yl)-3,4-dihydroxy-tetrahydrofuran-2-yl]methoxy-hydroxy-phosphoryl] phosphono hydrogen phosphate
   49    51     1     0     0
SMALL
USER_CHARGES

@<TRIPOS>ATOM
      1 PG          0.4605   -4.9457   -5.8623 P.3       1 GTP         1.7996
      2 O1G         1.1221   -5.6001   -7.0392 O.2       1 GTP        -0.8112
      3 O2G        -0.9901   -4.2974   -6.1574 O.3       1 GTP        -0.7934
      4 O3G         0.1890   -5.9170   -4.5992 O.3       1 GTP        -0.7934
      5 O3B         1.2966   -3.7251   -5.2120 O.3       1 GTP        -0.8067
      6 PB          1.8105   -2.3227   -5.8280 P.3       1 GTP         1.9429
      7 O1B         2.7399   -2.4578   -6.9980 O.2       1 GTP        -0.8303
      8 O2B         0.4470   -1.5055   -6.1214 O.3       1 GTP        -0.7951
      9 O3A         2.4047   -1.5353   -4.5499 O.3       1 GTP        -0.7994
     10 PA          3.0852   -0.0762   -4.4159 P.3       1 GTP         1.7871
     11 O1A         4.3287    0.1001   -5.2380 O.2       1 GTP        -0.8044
     12 O2A         1.8801    0.9311   -4.8037 O.3       1 GTP        -0.8076
     13 O5'         3.2876    0.1332   -2.8242 O.3       1 GTP        -0.5620
     14 C5'         2.2816   -0.2918   -1.9206 C.3       1 GTP         0.1570
     15 C4'         2.7248    0.0226   -0.4980 C.3       1 GTP         0.1395
     16 O4'         2.4697    1.4219   -0.2462 O.3       1 GTP        -0.3978
     17 C3'         1.9404   -0.7419    0.5596 C.3       1 GTP         0.0953
     18 O3'         2.7418   -0.8086    1.7389 O.3       1 GTP        -0.5639
     19 C2'         0.7477    0.1630    0.7858 C.3       1 GTP         0.0640
     20 O2'         0.1373   -0.0577    2.0407 O.3       1 GTP        -0.5724
     21 C1'         1.3733    1.5427    0.6747 C.3       1 GTP         0.4182
     22 N9          0.4520    2.5240    0.1767 N.pl3     1 GTP        -0.4563
     23 C8          0.0862    3.6482    0.7820 C.ar      1 GTP         0.2386
     24 N7         -0.7824    4.3469    0.0582 N.pl3     1 GTP        -0.4432
     25 C5         -0.9737    3.6092   -1.0781 C.ar      1 GTP        -0.2050
     26 C6         -1.8237    3.8942   -2.2250 C.ar      1 GTP         0.7599
     27 O6         -2.5148    4.8996   -2.3108 O.2       1 GTP        -0.5606
     28 N1         -1.7276    2.8778   -3.1740 N.pl3     1 GTP        -0.5020
     29 C2         -0.9198    1.7357   -3.0394 C.ar      1 GTP         0.7674
     30 N2         -0.9680    0.8541   -4.0876 N.pl3     1 GTP        -0.9014
     31 N3         -0.1700    1.5254   -1.9839 N.2       1 GTP        -0.6718
     32 C4         -0.2323    2.4951   -1.0278 C.ar      1 GTP         0.3897
     33 HOG2       -1.0653   -3.5874   -6.8300 H         1 GTP         0.5007
     34 HOG3       -0.3824   -6.7050   -4.7204 H         1 GTP         0.5007
     35 HOB2        0.5073   -0.5729   -6.4194 H         1 GTP         0.5193
     36 HOA2        2.0279    1.8978   -4.7296 H         1 GTP         0.4890
     37 H5'         1.3495    0.2323   -2.1554 H         1 GTP         0.0511
     38 H5''        2.1262   -1.3685   -2.0437 H         1 GTP         0.0511
     39 H4'         3.8049   -0.1388   -0.4009 H         1 GTP         0.1554
     40 H3'         1.6783   -1.7629    0.2715 H         1 GTP         0.0796
     41 HO3'        2.2232   -1.2979    2.3953 H         1 GTP         0.4259
     42 H2'        -0.0011    0.0027    0.0003 H         1 GTP         0.0621
     43 HO2'       -0.6141    0.5574    2.1082 H         1 GTP         0.4287
     44 H1'         1.7826    1.9024    1.6451 H         1 GTP         0.1525
     45 H8          0.4470    3.9641    1.7452 H         1 GTP         0.2675
     46 HN1        -2.2799    2.9689   -4.0217 H         1 GTP         0.3601
     47 HN21       -0.4130    0.0313   -4.0369 H         1 GTP         0.4770
     48 HN22       -1.5561    1.0708   -4.8588 H         1 GTP         0.4770
     49 H49        -1.2034    5.2317    0.3050 H         1 GTP         0.5213
@<TRIPOS>BOND
     1    1    2 2
     2    1    3 1
     3    1    4 1
     4    1    5 1
     5    3   33 1
     6    4   34 1
     7    5    6 1
     8    6    7 2
     9    6    8 1
    10    6    9 1
    11    8   35 1
    12    9   10 1
    13   10   11 2
    14   10   12 1
    15   10   13 1
    16   12   36 1
    17   13   14 1
    18   14   15 1
    19   14   37 1
    20   14   38 1
    21   15   16 1
    22   15   17 1
    23   15   39 1
    24   16   21 1
    25   17   18 1
    26   17   19 1
    27   17   40 1
    28   18   41 1
    29   19   20 1
    30   19   21 1
    31   19   42 1
    32   20   43 1
    33   21   22 1
    34   21   44 1
    35   22   23 ar
    36   22   32 ar
    37   23   24 ar
    38   23   45 1
    39   24   25 ar
    40   24   49 1
    41   25   26 ar
    42   25   32 ar
    43   26   27 2
    44   26   28 ar
    45   28   29 ar
    46   28   46 1
    47   29   30 1
    48   29   31 ar
    49   30   47 1
    50   30   48 1
    51   31   32 ar
@<TRIPOS>SUBSTRUCTURE
     1 GTP         1 GROUP 0 A     ****
@<TRIPOS>MOLECULE
[[5-(2-amino-6-oxo-7,8-dihydro-1~{H}-purin-8-ylium-9-yl)-3,4-dihydroxy-tetrahydrofuran-2-yl]methoxy-hydroxy-phosphoryl] phosphono hydrogen phosphate
   49    51     1     0     0
SMALL
USER_CHARGES

@<TRIPOS>ATOM
      1 PG          5.2303   -3.7157   -1.8303 P.3       1 GTP         1.7996
      2 O1G         4.7006   -5.1119   -1.6854 O.2       1 GTP        -0.8112
      3 O2G         5.3310   -2.8690   -0.4575 O.3       1 GTP        -0.7934
      4 O3G         6.7191   -3.6068   -2.4502 O.3       1 GTP        -0.7934
      5 O3B         4.3591   -2.7619   -2.8015 O.3       1 GTP        -0.8067
      6 PB          3.9719   -2.8827   -4.3653 P.3       1 GTP         1.9429
      7 O1B         5.1461   -2.9163   -5.2986 O.2       1 GTP        -0.8303
      8 O2B         3.0055   -4.1772   -4.4264 O.3       1 GTP        -0.7951
      9 O3A         2.9276   -1.6737   -4.5982 O.3       1 GTP        -0.7994
     10 PA          3.0852   -0.0762   -4.4159 P.3       1 GTP         1.7871
     11 O1A         4.1533    0.5381   -5.2733 O.2       1 GTP        -0.8044
     12 O2A         1.5937    0.4784   -4.7077 O.3       1 GTP        -0.8076
     13 O5'         3.2876    0.1332   -2.8242 O.3       1 GTP        -0.5620
     14 C5'         2.2816   -0.2918   -1.9206 C.3       1 GTP         0.1570
     15 C4'         2.7248    0.0226   -0.4980 C.3       1 GTP         0.1395
     16 O4'         2.4697    1.4219   -0.2462 O.3       1 GTP        -0.3978
     17 C3'         1.9404   -0.7419    0.5596 C.3       1 GTP         0.0953
     18 O3'         2.7418   -0.8086    1.7389 O.3       1 GTP        -0.5639
     19 C2'         0.7477    0.1630    0.7858 C.3       1 GTP         0.0640
     20 O2'         0.1373   -0.0577    2.0407 O.3       1 GTP        -0.5724
     21 C1'         1.3733    1.5427    0.6747 C.3       1 GTP         0.4182
     22 N9          0.4520    2.5240    0.1767 N.pl3     1 GTP        -0.4563
     23 C8          0.0862    3.6482    0.7820 C.ar      1 GTP         0.2386
     24 N7         -0.7824    4.3469    0.0582 N.pl3     1 GTP        -0.4432
     25 C5         -0.9737    3.6092   -1.0781 C.ar      1 GTP        -0.2050
     26 C6         -1.8237    3.8942   -2.2250 C.ar      1 GTP         0.7599
     27 O6         -2.5148    4.8996   -2.3108 O.2       1 GTP        -0.5606
     28 N1         -1.7276    2.8778   -3.1740 N.pl3     1 GTP        -0.5020
     29 C2         -0.9198    1.7357   -3.0394 C.ar      1 GTP         0.7674
     30 N2         -0.9680    0.8541   -4.0876 N.pl3     1 GTP        -0.9014
     31 N3         -0.1700    1.5254   -1.9839 N.2       1 GTP        -0.6718
     32 C4         -0.2323    2.4951   -1.0278 C.ar      1 GTP         0.3897
     33 HOG2        4.5143   -2.7039    0.0599 H         1 GTP         0.5007
     34 HOG3        6.8870   -3.9642   -3.3480 H         1 GTP         0.5007
     35 HOB2        3.3808   -5.0598   -4.2211 H         1 GTP         0.5193
     36 HOA2        1.4122    1.4351   -4.5904 H         1 GTP         0.4890
     37 H5'         1.3495    0.2323   -2.1554 H         1 GTP         0.0511
     38 H5''        2.1262   -1.3685   -2.0437 H         1 GTP         0.0511
     39 H4'         3.8049   -0.1388   -0.4009 H         1 GTP         0.1554
     40 H3'         1.6783   -1.7629    0.2715 H         1 GTP         0.0796
     41 HO3'        2.2232   -1.2979    2.3953 H         1 GTP         0.4259
     42 H2'        -0.0011    0.0027    0.0003 H         1 GTP         0.0621
     43 HO2'       -0.6141    0.5574    2.1082 H         1 GTP         0.4287
     44 H1'         1.7826    1.9024    1.6451 H         1 GTP         0.1525
     45 H8          0.4470    3.9641    1.7452 H         1 GTP         0.2675
     46 HN1        -2.2799    2.9689   -4.0217 H         1 GTP         0.3601
     47 HN21       -0.4130    0.0313   -4.0369 H         1 GTP         0.4770
     48 HN22       -1.5561    1.0708   -4.8588 H         1 GTP         0.4770
     49 H49        -1.2034    5.2317    0.3050 H         1 GTP         0.5213
@<TRIPOS>BOND
     1    1    2 2
     2    1    3 1
     3    1    4 1
     4    1    5 1
     5    3   33 1
     6    4   34 1
     7    5    6 1
     8    6    7 2
     9    6    8 1
    10    6    9 1
    11    8   35 1
    12    9   10 1
    13   10   11 2
    14   10   12 1
    15   10   13 1
    16   12   36 1
    17   13   14 1
    18   14   15 1
    19   14   37 1
    20   14   38 1
    21   15   16 1
    22   15   17 1
    23   15   39 1
    24   16   21 1
    25   17   18 1
    26   17   19 1
    27   17   40 1
    28   18   41 1
    29   19   20 1
    30   19   21 1
    31   19   42 1
    32   20   43 1
    33   21   22 1
    34   21   44 1
    35   22   23 ar
    36   22   32 ar
    37   23   24 ar
    38   23   45 1
    39   24   25 ar
    40   24   49 1
    41   25   26 ar
    42   25   32 ar
    43   26   27 2
    44   26   28 ar
    45   28   29 ar
    46   28   46 1
    47   29   30 1
    48   29   31 ar
    49   30   47 1
    50   30   48 1
    51   31   32 ar
@<TRIPOS>SUBSTRUCTURE
     1 GTP         1 GROUP 0 A     ****
@<TRIPOS>MOLECULE
[[5-(2-amino-6-oxo-7,8-dihydro-1~{H}-purin-8-ylium-9-yl)-3,4-dihydroxy-tetrahydrofuran-2-yl]methoxy-hydroxy-phosphoryl] phosphono hydrogen phosphate
   49    51     1     0     0
SMALL
USER_CHARGES

@<TRIPOS>ATOM
      1 PG          1.8482   -4.9048   -4.0412 P.3       1 GTP         1.7996
      2 O1G         2.0804   -5.3490   -2.6270 O.2       1 GTP        -0.8112
      3 O2G         1.4406   -6.0775   -5.0757 O.3       1 GTP        -0.7934
      4 O3G         0.6758   -3.8088   -4.2331 O.3       1 GTP        -0.7934
      5 O3B         3.1229   -4.2039   -4.7451 O.3       1 GTP        -0.8067
      6 PB          3.9719   -2.8827   -4.3653 P.3       1 GTP         1.9429
      7 O1B         4.6249   -2.9268   -3.0153 O.2       1 GTP        -0.8303
      8 O2B         4.9818   -2.6989   -5.6141 O.3       1 GTP        -0.7951
      9 O3A         2.9276   -1.6737   -4.5982 O.3       1 GTP        -0.7994
     10 PA          3.0852   -0.0762   -4.4159 P.3       1 GTP         1.7871
     11 O1A         4.1533    0.5381   -5.2733 O.2       1 GTP        -0.8044
     12 O2A         1.5937    0.4784   -4.7077 O.3       1 GTP        -0.8076
     13 O5'         3.2876    0.1332   -2.8242 O.3       1 GTP        -0.5620
     14 C5'         2.2816   -0.2918   -1.9206 C.3       1 GTP         0.1570
     15 C4'         2.7248    0.0226   -0.4980 C.3       1 GTP         0.1395
     16 O4'         2.4697    1.4219   -0.2462 O.3       1 GTP        -0.3978
     17 C3'         1.9404   -0.7419    0.5596 C.3       1 GTP         0.0953
     18 O3'         2.7418   -0.8086    1.7389 O.3       1 GTP        -0.5639
     19 C2'         0.7477    0.1630    0.7858 C.3       1 GTP         0.0640
     20 O2'         0.1373   -0.0577    2.0407 O.3       1 GTP        -0.5724
     21 C1'         1.3733    1.5427    0.6747 C.3       1 GTP         0.4182
     22 N9          0.4520    2.5240    0.1767 N.pl3     1 GTP        -0.4563
     23 C8          0.0862    3.6482    0.7820 C.ar      1 GTP         0.2386
     24 N7         -0.7824    4.3469    0.0582 N.pl3     1 GTP        -0.4432
     25 C5         -0.9737    3.6092   -1.0781 C.ar      1 GTP        -0.2050
     26 C6         -1.8237    3.8942   -2.2250 C.ar      1 GTP         0.7599
     27 O6         -2.5148    4.8996   -2.3108 O.2       1 GTP        -0.5606
     28 N1         -1.7276    2.8778   -3.1740 N.pl3     1 GTP        -0.5020
     29 C2         -0.9198    1.7357   -3.0394 C.ar      1 GTP         0.7674
     30 N2         -0.9680    0.8541   -4.0876 N.pl3     1 GTP        -0.9014
     31 N3         -0.1700    1.5254   -1.9839 N.2       1 GTP        -0.6718
     32 C4         -0.2323    2.4951   -1.0278 C.ar      1 GTP         0.3897
     33 HOG2        0.6249   -6.5960   -4.9087 H         1 GTP         0.5007
     34 HOG3        0.7545   -2.9444   -3.7764 H         1 GTP         0.5007
     35 HOB2        5.5459   -1.8974   -5.6543 H         1 GTP         0.5193
     36 HOA2        1.4122    1.4351   -4.5904 H         1 GTP         0.4890
     37 H5'         1.3495    0.2323   -2.1554 H         1 GTP         0.0511
     38 H5''        2.1262   -1.3685   -2.0437 H         1 GTP         0.0511
     39 H4'         3.8049   -0.1388   -0.4009 H         1 GTP         0.1554
     40 H3'         1.6783   -1.7629    0.2715 H         1 GTP         0.0796
     41 HO3'        2.2232   -1.2979    2.3953 H         1 GTP         0.4259
     42 H2'        -0.0011    0.0027    0.0003 H         1 GTP         0.0621
     43 HO2'       -0.6141    0.5574    2.1082 H         1 GTP         0.4287
     44 H1'         1.7826    1.9024    1.6451 H         1 GTP         0.1525
     45 H8          0.4470    3.9641    1.7452 H         1 GTP         0.2675
     46 HN1        -2.2799    2.9689   -4.0217 H         1 GTP         0.3601
     47 HN21       -1.5562    1.0710   -4.8587 H         1 GTP         0.4770
     48 HN22       -0.4131    0.0312   -4.0371 H         1 GTP         0.4770
     49 H49        -1.2034    5.2317    0.3050 H         1 GTP         0.5213
@<TRIPOS>BOND
     1    1    2 2
     2    1    3 1
     3    1    4 1
     4    1    5 1
     5    3   33 1
     6    4   34 1
     7    5    6 1
     8    6    7 2
     9    6    8 1
    10    6    9 1
    11    8   35 1
    12    9   10 1
    13   10   11 2
    14   10   12 1
    15   10   13 1
    16   12   36 1
    17   13   14 1
    18   14   15 1
    19   14   37 1
    20   14   38 1
    21   15   16 1
    22   15   17 1
    23   15   39 1
    24   16   21 1
    25   17   18 1
    26   17   19 1
    27   17   40 1
    28   18   41 1
    29   19   20 1
    30   19   21 1
    31   19   42 1
    32   20   43 1
    33   21   22 1
    34   21   44 1
    35   22   23 ar
    36   22   32 ar
    37   23   24 ar
    38   23   45 1
    39   24   25 ar
    40   24   49 1
    41   25   26 ar
    42   25   32 ar
    43   26   27 2
    44   26   28 ar
    45   28   29 ar
    46   28   46 1
    47   29   30 1
    48   29   31 ar
    49   30   47 1
    50   30   48 1
    51   31   32 ar
@<TRIPOS>SUBSTRUCTURE
     1 GTP         1 GROUP 0 A     ****
@<TRIPOS>MOLECULE
[[5-(2-amino-6-oxo-7,8-dihydro-1~{H}-purin-8-ylium-9-yl)-3,4-dihydroxy-tetrahydrofuran-2-yl]methoxy-hydroxy-phosphoryl] phosphono hydrogen phosphate
   49    51     1     0     0
SMALL
USER_CHARGES

@<TRIPOS>ATOM
      1 PG          3.5522   -5.7548   -4.8932 P.3       1 GTP         1.7996
      2 O1G         4.5998   -6.0172   -5.9347 O.2       1 GTP        -0.8112
      3 O2G         2.1458   -6.5179   -5.1202 O.3       1 GTP        -0.7934
      4 O3G         3.9646   -6.1659   -3.3854 O.3       1 GTP        -0.7934
      5 O3B         3.1229   -4.2039   -4.7451 O.3       1 GTP        -0.8067
      6 PB          3.9719   -2.8827   -4.3653 P.3       1 GTP         1.9429
      7 O1B         4.6249   -2.9268   -3.0153 O.2       1 GTP        -0.8303
      8 O2B         4.9818   -2.6989   -5.6141 O.3       1 GTP        -0.7951
      9 O3A         2.9276   -1.6737   -4.5982 O.3       1 GTP        -0.7994
     10 PA          3.0852   -0.0762   -4.4159 P.3       1 GTP         1.7871
     11 O1A         4.1533    0.5381   -5.2733 O.2       1 GTP        -0.8044
     12 O2A         1.5937    0.4784   -4.7077 O.3       1 GTP        -0.8076
     13 O5'         3.2876    0.1332   -2.8242 O.3       1 GTP        -0.5620
     14 C5'         2.2816   -0.2918   -1.9206 C.3       1 GTP         0.1570
     15 C4'         2.7248    0.0226   -0.4980 C.3       1 GTP         0.1395
     16 O4'         2.4697    1.4219   -0.2462 O.3       1 GTP        -0.3978
     17 C3'         1.9404   -0.7419    0.5596 C.3       1 GTP         0.0953
     18 O3'         2.7418   -0.8086    1.7389 O.3       1 GTP        -0.5639
     19 C2'         0.7477    0.1630    0.7858 C.3       1 GTP         0.0640
     20 O2'         0.1373   -0.0577    2.0407 O.3       1 GTP        -0.5724
     21 C1'         1.3733    1.5427    0.6747 C.3       1 GTP         0.4182
     22 N9          0.4520    2.5240    0.1767 N.pl3     1 GTP        -0.4563
     23 C8          0.0862    3.6482    0.7820 C.ar      1 GTP         0.2386
     24 N7         -0.7824    4.3469    0.0582 N.pl3     1 GTP        -0.4432
     25 C5         -0.9737    3.6092   -1.0781 C.ar      1 GTP        -0.2050
     26 C6         -1.8237    3.8942   -2.2250 C.ar      1 GTP         0.7599
     27 O6         -2.5148    4.8996   -2.3108 O.2       1 GTP        -0.5606
     28 N1         -1.7276    2.8778   -3.1740 N.pl3     1 GTP        -0.5020
     29 C2         -0.9198    1.7357   -3.0394 C.ar      1 GTP         0.7674
     30 N2         -0.9680    0.8541   -4.0876 N.pl3     1 GTP        -0.9014
     31 N3         -0.1700    1.5254   -1.9839 N.2       1 GTP        -0.6718
     32 C4         -0.2323    2.4951   -1.0278 C.ar      1 GTP         0.3897
     33 HOG2        2.1363   -7.4982   -5.1488 H         1 GTP         0.5007
     34 HOG3        4.7471   -5.7405   -2.9744 H         1 GTP         0.5007
     35 HOB2        5.5459   -1.8974   -5.6543 H         1 GTP         0.5193
     36 HOA2        1.4122    1.4351   -4.5904 H         1 GTP         0.4890
     37 H5'         1.3495    0.2323   -2.1554 H         1 GTP         0.0511
     38 H5''        2.1262   -1.3685   -2.0437 H         1 GTP         0.0511
     39 H4'         3.8049   -0.1388   -0.4009 H         1 GTP         0.1554
     40 H3'         1.6783   -1.7629    0.2715 H         1 GTP         0.0796
     41 HO3'        2.2232   -1.2979    2.3953 H         1 GTP         0.4259
     42 H2'        -0.0011    0.0027    0.0003 H         1 GTP         0.0621
     43 HO2'       -0.6141    0.5574    2.1082 H         1 GTP         0.4287
     44 H1'         1.7826    1.9024    1.6451 H         1 GTP         0.1525
     45 H8          0.4470    3.9641    1.7452 H         1 GTP         0.2675
     46 HN1        -2.2799    2.9689   -4.0217 H         1 GTP         0.3601
     47 HN21       -0.4130    0.0313   -4.0369 H         1 GTP         0.4770
     48 HN22       -1.5561    1.0708   -4.8588 H         1 GTP         0.4770
     49 H49        -1.2034    5.2317    0.3050 H         1 GTP         0.5213
@<TRIPOS>BOND
     1    1    2 2
     2    1    3 1
     3    1    4 1
     4    1    5 1
     5    3   33 1
     6    4   34 1
     7    5    6 1
     8    6    7 2
     9    6    8 1
    10    6    9 1
    11    8   35 1
    12    9   10 1
    13   10   11 2
    14   10   12 1
    15   10   13 1
    16   12   36 1
    17   13   14 1
    18   14   15 1
    19   14   37 1
    20   14   38 1
    21   15   16 1
    22   15   17 1
    23   15   39 1
    24   16   21 1
    25   17   18 1
    26   17   19 1
    27   17   40 1
    28   18   41 1
    29   19   20 1
    30   19   21 1
    31   19   42 1
    32   20   43 1
    33   21   22 1
    34   21   44 1
    35   22   23 ar
    36   22   32 ar
    37   23   24 ar
    38   23   45 1
    39   24   25 ar
    40   24   49 1
    41   25   26 ar
    42   25   32 ar
    43   26   27 2
    44   26   28 ar
    45   28   29 ar
    46   28   46 1
    47   29   30 1
    48   29   31 ar
    49   30   47 1
    50   30   48 1
    51   31   32 ar
@<TRIPOS>SUBSTRUCTURE
     1 GTP         1 GROUP 0 A     ****
@<TRIPOS>MOLECULE
[[5-(2-amino-6-oxo-7,8-dihydro-1~{H}-purin-8-ylium-9-yl)-3,4-dihydroxy-tetrahydrofuran-2-yl]methoxy-hydroxy-phosphoryl] phosphono hydrogen phosphate
   49    51     1     0     0
SMALL
USER_CHARGES

@<TRIPOS>ATOM
      1 PG          3.7863   -5.0125   -4.7732 P.3       1 GTP         1.7996
      2 O1G         4.5001   -4.4607   -3.5744 O.2       1 GTP        -0.8112
      3 O2G         4.7109   -5.2570   -6.0759 O.3       1 GTP        -0.7934
      4 O3G         3.0683   -6.4428   -4.5469 O.3       1 GTP        -0.7934
      5 O3B         2.5856   -4.0843   -5.3287 O.3       1 GTP        -0.8067
      6 PB          2.5668   -2.5700   -5.8916 P.3       1 GTP         1.9429
      7 O1B         3.4259   -2.3424   -7.1004 O.2       1 GTP        -0.8303
      8 O2B         0.9949   -2.2510   -6.0930 O.3       1 GTP        -0.7951
      9 O3A         2.9276   -1.6737   -4.5982 O.3       1 GTP        -0.7994
     10 PA          3.0852   -0.0762   -4.4159 P.3       1 GTP         1.7871
     11 O1A         4.1533    0.5381   -5.2733 O.2       1 GTP        -0.8044
     12 O2A         1.5937    0.4784   -4.7077 O.3       1 GTP        -0.8076
     13 O5'         3.2876    0.1332   -2.8242 O.3       1 GTP        -0.5620
     14 C5'         2.2816   -0.2918   -1.9206 C.3       1 GTP         0.1570
     15 C4'         2.7248    0.0226   -0.4980 C.3       1 GTP         0.1395
     16 O4'         2.4697    1.4219   -0.2462 O.3       1 GTP        -0.3978
     17 C3'         1.9404   -0.7419    0.5596 C.3       1 GTP         0.0953
     18 O3'         2.7418   -0.8086    1.7389 O.3       1 GTP        -0.5639
     19 C2'         0.7477    0.1630    0.7858 C.3       1 GTP         0.0640
     20 O2'         0.1373   -0.0577    2.0407 O.3       1 GTP        -0.5724
     21 C1'         1.3733    1.5427    0.6747 C.3       1 GTP         0.4182
     22 N9          0.4520    2.5240    0.1767 N.pl3     1 GTP        -0.4563
     23 C8          0.0862    3.6482    0.7820 C.ar      1 GTP         0.2386
     24 N7         -0.7824    4.3469    0.0582 N.pl3     1 GTP        -0.4432
     25 C5         -0.9737    3.6092   -1.0781 C.ar      1 GTP        -0.2050
     26 C6         -1.8237    3.8942   -2.2250 C.ar      1 GTP         0.7599
     27 O6         -2.5148    4.8996   -2.3108 O.2       1 GTP        -0.5606
     28 N1         -1.7276    2.8778   -3.1740 N.pl3     1 GTP        -0.5020
     29 C2         -0.9198    1.7357   -3.0394 C.ar      1 GTP         0.7674
     30 N2         -0.9680    0.8541   -4.0876 N.pl3     1 GTP        -0.9014
     31 N3         -0.1700    1.5254   -1.9839 N.2       1 GTP        -0.6718
     32 C4         -0.2323    2.4951   -1.0278 C.ar      1 GTP         0.3897
     33 HOG2        5.4688   -5.8762   -6.0111 H         1 GTP         0.5007
     34 HOG3        3.6162   -7.2130   -4.2851 H         1 GTP         0.5007
     35 HOB2        0.7234   -1.3429   -6.3455 H         1 GTP         0.5193
     36 HOA2        1.4122    1.4351   -4.5904 H         1 GTP         0.4890
     37 H5'         1.3495    0.2323   -2.1554 H         1 GTP         0.0511
     38 H5''        2.1262   -1.3685   -2.0437 H         1 GTP         0.0511
     39 H4'         3.8049   -0.1388   -0.4009 H         1 GTP         0.1554
     40 H3'         1.6783   -1.7629    0.2715 H         1 GTP         0.0796
     41 HO3'        2.2232   -1.2979    2.3953 H         1 GTP         0.4259
     42 H2'        -0.0011    0.0027    0.0003 H         1 GTP         0.0621
     43 HO2'       -0.6141    0.5574    2.1082 H         1 GTP         0.4287
     44 H1'         1.7826    1.9024    1.6451 H         1 GTP         0.1525
     45 H8          0.4470    3.9641    1.7452 H         1 GTP         0.2675
     46 HN1        -2.2799    2.9689   -4.0217 H         1 GTP         0.3601
     47 HN21       -0.4130    0.0313   -4.0369 H         1 GTP         0.4770
     48 HN22       -1.5561    1.0708   -4.8588 H         1 GTP         0.4770
     49 H49        -1.2034    5.2317    0.3050 H         1 GTP         0.5213
@<TRIPOS>BOND
     1    1    2 2
     2    1    3 1
     3    1    4 1
     4    1    5 1
     5    3   33 1
     6    4   34 1
     7    5    6 1
     8    6    7 2
     9    6    8 1
    10    6    9 1
    11    8   35 1
    12    9   10 1
    13   10   11 2
    14   10   12 1
    15   10   13 1
    16   12   36 1
    17   13   14 1
    18   14   15 1
    19   14   37 1
    20   14   38 1
    21   15   16 1
    22   15   17 1
    23   15   39 1
    24   16   21 1
    25   17   18 1
    26   17   19 1
    27   17   40 1
    28   18   41 1
    29   19   20 1
    30   19   21 1
    31   19   42 1
    32   20   43 1
    33   21   22 1
    34   21   44 1
    35   22   23 ar
    36   22   32 ar
    37   23   24 ar
    38   23   45 1
    39   24   25 ar
    40   24   49 1
    41   25   26 ar
    42   25   32 ar
    43   26   27 2
    44   26   28 ar
    45   28   29 ar
    46   28   46 1
    47   29   30 1
    48   29   31 ar
    49   30   47 1
    50   30   48 1
    51   31   32 ar
@<TRIPOS>SUBSTRUCTURE
     1 GTP         1 GROUP 0 A     ****
@<TRIPOS>MOLECULE
[[5-(2-amino-6-oxo-7,8-dihydro-1~{H}-purin-8-ylium-9-yl)-3,4-dihydroxy-tetrahydrofuran-2-yl]methoxy-hydroxy-phosphoryl] phosphono hydrogen phosphate
   49    51     1     0     0
SMALL
USER_CHARGES

@<TRIPOS>ATOM
      1 PG          4.1291   -2.8600   -8.3773 P.3       1 GTP         1.7996
      2 O1G         3.0521   -2.7431   -9.4153 O.2       1 GTP        -0.8112
      3 O2G         4.5855   -4.3691   -8.0222 O.3       1 GTP        -0.7934
      4 O3G         5.5197   -2.1224   -8.7443 O.3       1 GTP        -0.7934
      5 O3B         3.7494   -2.2297   -6.9385 O.3       1 GTP        -0.8067
      6 PB          2.5668   -2.5700   -5.8916 P.3       1 GTP         1.9429
      7 O1B         1.1802   -2.3952   -6.4374 O.2       1 GTP        -0.8303
      8 O2B         2.9221   -4.0605   -5.3766 O.3       1 GTP        -0.7951
      9 O3A         2.9276   -1.6737   -4.5982 O.3       1 GTP        -0.7994
     10 PA          3.0852   -0.0762   -4.4159 P.3       1 GTP         1.7871
     11 O1A         4.1533    0.5381   -5.2733 O.2       1 GTP        -0.8044
     12 O2A         1.5937    0.4784   -4.7077 O.3       1 GTP        -0.8076
     13 O5'         3.2876    0.1332   -2.8242 O.3       1 GTP        -0.5620
     14 C5'         2.2816   -0.2918   -1.9206 C.3       1 GTP         0.1570
     15 C4'         2.7248    0.0226   -0.4980 C.3       1 GTP         0.1395
     16 O4'         2.4697    1.4219   -0.2462 O.3       1 GTP        -0.3978
     17 C3'         1.9404   -0.7419    0.5596 C.3       1 GTP         0.0953
     18 O3'         2.7418   -0.8086    1.7389 O.3       1 GTP        -0.5639
     19 C2'         0.7477    0.1630    0.7858 C.3       1 GTP         0.0640
     20 O2'         0.1373   -0.0577    2.0407 O.3       1 GTP        -0.5724
     21 C1'         1.3733    1.5427    0.6747 C.3       1 GTP         0.4182
     22 N9          0.4520    2.5240    0.1767 N.pl3     1 GTP        -0.4563
     23 C8          0.0862    3.6482    0.7820 C.ar      1 GTP         0.2386
     24 N7         -0.7824    4.3469    0.0582 N.pl3     1 GTP        -0.4432
     25 C5         -0.9737    3.6092   -1.0781 C.ar      1 GTP        -0.2050
     26 C6         -1.8237    3.8942   -2.2250 C.ar      1 GTP         0.7599
     27 O6         -2.5148    4.8996   -2.3108 O.2       1 GTP        -0.5606
     28 N1         -1.7276    2.8778   -3.1740 N.pl3     1 GTP        -0.5020
     29 C2         -0.9198    1.7357   -3.0394 C.ar      1 GTP         0.7674
     30 N2         -0.9680    0.8541   -4.0876 N.pl3     1 GTP        -0.9014
     31 N3         -0.1700    1.5254   -1.9839 N.2       1 GTP        -0.6718
     32 C4         -0.2323    2.4951   -1.0278 C.ar      1 GTP         0.3897
     33 HOG2        4.9533   -4.9343   -8.7345 H         1 GTP         0.5007
     34 HOG3        5.5166   -1.1543   -8.9018 H         1 GTP         0.5007
     35 HOB2        2.3872   -4.4532   -4.6543 H         1 GTP         0.5193
     36 HOA2        1.2130    0.3658   -5.6046 H         1 GTP         0.4890
     37 H5'         1.3495    0.2323   -2.1554 H         1 GTP         0.0511
     38 H5''        2.1262   -1.3685   -2.0437 H         1 GTP         0.0511
     39 H4'         3.8049   -0.1388   -0.4009 H         1 GTP         0.1554
     40 H3'         1.6783   -1.7629    0.2715 H         1 GTP         0.0796
     41 HO3'        2.2232   -1.2979    2.3953 H         1 GTP         0.4259
     42 H2'        -0.0011    0.0027    0.0003 H         1 GTP         0.0621
     43 HO2'       -0.1563   -0.9855    2.0596 H         1 GTP         0.4287
     44 H1'         1.7826    1.9024    1.6451 H         1 GTP         0.1525
     45 H8          0.4470    3.9641    1.7452 H         1 GTP         0.2675
     46 HN1        -2.2799    2.9689   -4.0217 H         1 GTP         0.3601
     47 HN21       -0.4130    0.0313   -4.0369 H         1 GTP         0.4770
     48 HN22       -1.5561    1.0708   -4.8588 H         1 GTP         0.4770
     49 H49        -1.2034    5.2317    0.3050 H         1 GTP         0.5213
@<TRIPOS>BOND
     1    1    2 2
     2    1    3 1
     3    1    4 1
     4    1    5 1
     5    3   33 1
     6    4   34 1
     7    5    6 1
     8    6    7 2
     9    6    8 1
    10    6    9 1
    11    8   35 1
    12    9   10 1
    13   10   11 2
    14   10   12 1
    15   10   13 1
    16   12   36 1
    17   13   14 1
    18   14   15 1
    19   14   37 1
    20   14   38 1
    21   15   16 1
    22   15   17 1
    23   15   39 1
    24   16   21 1
    25   17   18 1
    26   17   19 1
    27   17   40 1
    28   18   41 1
    29   19   20 1
    30   19   21 1
    31   19   42 1
    32   20   43 1
    33   21   22 1
    34   21   44 1
    35   22   23 ar
    36   22   32 ar
    37   23   24 ar
    38   23   45 1
    39   24   25 ar
    40   24   49 1
    41   25   26 ar
    42   25   32 ar
    43   26   27 2
    44   26   28 ar
    45   28   29 ar
    46   28   46 1
    47   29   30 1
    48   29   31 ar
    49   30   47 1
    50   30   48 1
    51   31   32 ar
@<TRIPOS>SUBSTRUCTURE
     1 GTP         1 GROUP 0 A     ****
@<TRIPOS>MOLECULE
[[5-(2-amino-6-oxo-7,8-dihydro-1~{H}-purin-8-ylium-9-yl)-3,4-dihydroxy-tetrahydrofuran-2-yl]methoxy-hydroxy-phosphoryl] phosphono hydrogen phosphate
   49    51     1     0     0
SMALL
USER_CHARGES

@<TRIPOS>ATOM
      1 PG          0.0857   -3.4098   -5.3001 P.3       1 GTP         1.7996
      2 O1G        -0.7430   -2.3281   -4.6723 O.2       1 GTP        -0.8112
      3 O2G         0.5778   -4.5750   -4.2941 O.3       1 GTP        -0.7934
      4 O3G        -0.6380   -4.2239   -6.4942 O.3       1 GTP        -0.7934
      5 O3B         1.4562   -2.8964   -5.9856 O.3       1 GTP        -0.8067
      6 PB          2.7414   -2.1273   -5.3799 P.3       1 GTP         1.9429
      7 O1B         3.4563   -2.8691   -4.2892 O.2       1 GTP        -0.8303
      8 O2B         3.6365   -1.7838   -6.6814 O.3       1 GTP        -0.7951
      9 O3A         2.1656   -0.6739   -4.9762 O.3       1 GTP        -0.7994
     10 PA          2.8837    0.6137   -4.3156 P.3       1 GTP         1.7871
     11 O1A         4.0175    1.1693   -5.1275 O.2       1 GTP        -0.8044
     12 O2A         1.6579    1.6445   -4.0876 O.3       1 GTP        -0.8076
     13 O5'         3.2876    0.1332   -2.8242 O.3       1 GTP        -0.5620
     14 C5'         2.2816   -0.2918   -1.9206 C.3       1 GTP         0.1570
     15 C4'         2.7248    0.0226   -0.4980 C.3       1 GTP         0.1395
     16 O4'         2.4697    1.4219   -0.2462 O.3       1 GTP        -0.3978
     17 C3'         1.9404   -0.7419    0.5596 C.3       1 GTP         0.0953
     18 O3'         2.7418   -0.8086    1.7389 O.3       1 GTP        -0.5639
     19 C2'         0.7477    0.1630    0.7858 C.3       1 GTP         0.0640
     20 O2'         0.1373   -0.0577    2.0407 O.3       1 GTP        -0.5724
     21 C1'         1.3733    1.5427    0.6747 C.3       1 GTP         0.4182
     22 N9          0.4520    2.5240    0.1767 N.pl3     1 GTP        -0.4563
     23 C8          0.0862    3.6482    0.7820 C.ar      1 GTP         0.2386
     24 N7         -0.7824    4.3469    0.0582 N.pl3     1 GTP        -0.4432
     25 C5         -0.9737    3.6092   -1.0781 C.ar      1 GTP        -0.2050
     26 C6         -1.8237    3.8942   -2.2250 C.ar      1 GTP         0.7599
     27 O6         -2.5148    4.8996   -2.3108 O.2       1 GTP        -0.5606
     28 N1         -1.7276    2.8778   -3.1740 N.pl3     1 GTP        -0.5020
     29 C2         -0.9198    1.7357   -3.0394 C.ar      1 GTP         0.7674
     30 N2         -0.9680    0.8541   -4.0876 N.pl3     1 GTP        -0.9014
     31 N3         -0.1700    1.5254   -1.9839 N.2       1 GTP        -0.6718
     32 C4         -0.2323    2.4951   -1.0278 C.ar      1 GTP         0.3897
     33 HOG2        1.1390   -4.3343   -3.5265 H         1 GTP         0.5007
     34 HOG3       -1.4670   -4.7117   -6.3019 H         1 GTP         0.5007
     35 HOB2        4.4378   -1.2285   -6.5733 H         1 GTP         0.5193
     36 HOA2        1.8312    2.4926   -3.6265 H         1 GTP         0.4890
     37 H5'         1.3495    0.2323   -2.1554 H         1 GTP         0.0511
     38 H5''        2.1262   -1.3685   -2.0437 H         1 GTP         0.0511
     39 H4'         3.8049   -0.1388   -0.4009 H         1 GTP         0.1554
     40 H3'         1.6783   -1.7629    0.2715 H         1 GTP         0.0796
     41 HO3'        2.2232   -1.2979    2.3953 H         1 GTP         0.4259
     42 H2'        -0.0011    0.0027    0.0003 H         1 GTP         0.0621
     43 HO2'       -0.6141    0.5574    2.1082 H         1 GTP         0.4287
     44 H1'         1.7826    1.9024    1.6451 H         1 GTP         0.1525
     45 H8          0.4470    3.9641    1.7452 H         1 GTP         0.2675
     46 HN1        -2.2799    2.9689   -4.0217 H         1 GTP         0.3601
     47 HN21       -0.4130    0.0313   -4.0369 H         1 GTP         0.4770
     48 HN22       -1.5561    1.0708   -4.8588 H         1 GTP         0.4770
     49 H49        -1.2034    5.2317    0.3050 H         1 GTP         0.5213
@<TRIPOS>BOND
     1    1    2 2
     2    1    3 1
     3    1    4 1
     4    1    5 1
     5    3   33 1
     6    4   34 1
     7    5    6 1
     8    6    7 2
     9    6    8 1
    10    6    9 1
    11    8   35 1
    12    9   10 1
    13   10   11 2
    14   10   12 1
    15   10   13 1
    16   12   36 1
    17   13   14 1
    18   14   15 1
    19   14   37 1
    20   14   38 1
    21   15   16 1
    22   15   17 1
    23   15   39 1
    24   16   21 1
    25   17   18 1
    26   17   19 1
    27   17   40 1
    28   18   41 1
    29   19   20 1
    30   19   21 1
    31   19   42 1
    32   20   43 1
    33   21   22 1
    34   21   44 1
    35   22   23 ar
    36   22   32 ar
    37   23   24 ar
    38   23   45 1
    39   24   25 ar
    40   24   49 1
    41   25   26 ar
    42   25   32 ar
    43   26   27 2
    44   26   28 ar
    45   28   29 ar
    46   28   46 1
    47   29   30 1
    48   29   31 ar
    49   30   47 1
    50   30   48 1
    51   31   32 ar
@<TRIPOS>SUBSTRUCTURE
     1 GTP         1 GROUP 0 A     ****
@<TRIPOS>MOLECULE
[[5-(2-amino-6-oxo-7,8-dihydro-1~{H}-purin-8-ylium-9-yl)-3,4-dihydroxy-tetrahydrofuran-2-yl]methoxy-hydroxy-phosphoryl] phosphono hydrogen phosphate
   49    51     1     0     0
SMALL
USER_CHARGES

@<TRIPOS>ATOM
      1 PG          1.3051   -4.3265   -6.7230 P.3       1 GTP         1.7996
      2 O1G         1.7358   -5.5039   -5.8988 O.2       1 GTP        -0.8112
      3 O2G         2.1073   -4.1244   -8.1112 O.3       1 GTP        -0.7934
      4 O3G        -0.2447   -4.3395   -7.1819 O.3       1 GTP        -0.7934
      5 O3B         1.4562   -2.8964   -5.9856 O.3       1 GTP        -0.8067
      6 PB          2.7414   -2.1273   -5.3799 P.3       1 GTP         1.9429
      7 O1B         3.4563   -2.8691   -4.2892 O.2       1 GTP        -0.8303
      8 O2B         3.6365   -1.7838   -6.6814 O.3       1 GTP        -0.7951
      9 O3A         2.1656   -0.6739   -4.9762 O.3       1 GTP        -0.7994
     10 PA          2.8837    0.6137   -4.3156 P.3       1 GTP         1.7871
     11 O1A         4.0175    1.1693   -5.1275 O.2       1 GTP        -0.8044
     12 O2A         1.6579    1.6445   -4.0876 O.3       1 GTP        -0.8076
     13 O5'         3.2876    0.1332   -2.8242 O.3       1 GTP        -0.5620
     14 C5'         2.2816   -0.2918   -1.9206 C.3       1 GTP         0.1570
     15 C4'         2.7248    0.0226   -0.4980 C.3       1 GTP         0.1395
     16 O4'         2.4697    1.4219   -0.2462 O.3       1 GTP        -0.3978
     17 C3'         1.9404   -0.7419    0.5596 C.3       1 GTP         0.0953
     18 O3'         2.7418   -0.8086    1.7389 O.3       1 GTP        -0.5639
     19 C2'         0.7477    0.1630    0.7858 C.3       1 GTP         0.0640
     20 O2'         0.1373   -0.0577    2.0407 O.3       1 GTP        -0.5724
     21 C1'         1.3733    1.5427    0.6747 C.3       1 GTP         0.4182
     22 N9          0.4520    2.5240    0.1767 N.pl3     1 GTP        -0.4563
     23 C8          0.0862    3.6482    0.7820 C.ar      1 GTP         0.2386
     24 N7         -0.7824    4.3469    0.0582 N.pl3     1 GTP        -0.4432
     25 C5         -0.9737    3.6092   -1.0781 C.ar      1 GTP        -0.2050
     26 C6         -1.8237    3.8942   -2.2250 C.ar      1 GTP         0.7599
     27 O6         -2.5148    4.8996   -2.3108 O.2       1 GTP        -0.5606
     28 N1         -1.7276    2.8778   -3.1740 N.pl3     1 GTP        -0.5020
     29 C2         -0.9198    1.7357   -3.0394 C.ar      1 GTP         0.7674
     30 N2         -0.9680    0.8541   -4.0876 N.pl3     1 GTP        -0.9014
     31 N3         -0.1700    1.5254   -1.9839 N.2       1 GTP        -0.6718
     32 C4         -0.2323    2.4951   -1.0278 C.ar      1 GTP         0.3897
     33 HOG2        3.0778   -3.9852   -8.0833 H         1 GTP         0.5007
     34 HOG3       -0.5704   -5.0825   -7.7332 H         1 GTP         0.5007
     35 HOB2        4.4378   -1.2285   -6.5733 H         1 GTP         0.5193
     36 HOA2        1.8312    2.4926   -3.6265 H         1 GTP         0.4890
     37 H5'         1.3495    0.2323   -2.1554 H         1 GTP         0.0511
     38 H5''        2.1262   -1.3685   -2.0437 H         1 GTP         0.0511
     39 H4'         3.8049   -0.1388   -0.4009 H         1 GTP         0.1554
     40 H3'         1.6783   -1.7629    0.2715 H         1 GTP         0.0796
     41 HO3'        2.2232   -1.2979    2.3953 H         1 GTP         0.4259
     42 H2'        -0.0011    0.0027    0.0003 H         1 GTP         0.0621
     43 HO2'       -0.6141    0.5574    2.1082 H         1 GTP         0.4287
     44 H1'         1.7826    1.9024    1.6451 H         1 GTP         0.1525
     45 H8          0.4470    3.9641    1.7452 H         1 GTP         0.2675
     46 HN1        -2.2799    2.9689   -4.0217 H         1 GTP         0.3601
     47 HN21       -0.4130    0.0313   -4.0369 H         1 GTP         0.4770
     48 HN22       -1.5561    1.0708   -4.8588 H         1 GTP         0.4770
     49 H49        -1.2034    5.2317    0.3050 H         1 GTP         0.5213
@<TRIPOS>BOND
     1    1    2 2
     2    1    3 1
     3    1    4 1
     4    1    5 1
     5    3   33 1
     6    4   34 1
     7    5    6 1
     8    6    7 2
     9    6    8 1
    10    6    9 1
    11    8   35 1
    12    9   10 1
    13   10   11 2
    14   10   12 1
    15   10   13 1
    16   12   36 1
    17   13   14 1
    18   14   15 1
    19   14   37 1
    20   14   38 1
    21   15   16 1
    22   15   17 1
    23   15   39 1
    24   16   21 1
    25   17   18 1
    26   17   19 1
    27   17   40 1
    28   18   41 1
    29   19   20 1
    30   19   21 1
    31   19   42 1
    32   20   43 1
    33   21   22 1
    34   21   44 1
    35   22   23 ar
    36   22   32 ar
    37   23   24 ar
    38   23   45 1
    39   24   25 ar
    40   24   49 1
    41   25   26 ar
    42   25   32 ar
    43   26   27 2
    44   26   28 ar
    45   28   29 ar
    46   28   46 1
    47   29   30 1
    48   29   31 ar
    49   30   47 1
    50   30   48 1
    51   31   32 ar
@<TRIPOS>SUBSTRUCTURE
     1 GTP         1 GROUP 0 A     ****
