AMP
                    3D
 Structure written by MMmdl.
 35 37  0  0  1  0            999 V2000
    8.0430   39.6860   18.8130 P   0  0  0  0  0  0
    7.7740   40.6370   19.9950 O   0  0  0  0  0  0
    6.8830   38.7840   18.6430 O   0  5  0  0  0  0
    9.3160   38.8560   19.0920 O   0  5  0  0  0  0
    8.2900   40.5340   17.4630 O   0  0  0  0  0  0
    9.2750   41.5450   17.4120 C   0  0  0  0  0  0
    9.9220   41.6170   16.0320 C   0  0  1  0  0  0
   10.6260   40.4170   15.7520 O   0  0  0  0  0  0
    8.8990   41.8150   14.9230 C   0  0  1  0  0  0
    9.2380   42.9330   14.1330 O   0  0  0  0  0  0
    8.9330   40.5290   14.1140 C   0  0  1  0  0  0
    8.9320   40.7810   12.7260 O   0  0  0  0  0  0
   10.2200   39.8280   14.5300 C   0  0  2  0  0  0
   10.0930   38.3690   14.7560 N   0  0  0  0  0  0
    9.3770   37.7670   15.7530 C   0  0  0  0  0  0
    9.4950   36.4180   15.6450 N   0  0  0  0  0  0
   10.2870   36.1600   14.5860 C   0  0  0  0  0  0
   10.7070   34.9510   14.0630 C   0  0  0  0  0  0
   10.3370   33.8060   14.6270 N   0  0  0  0  0  0
   11.5510   34.9950   12.9590 N   0  0  0  0  0  0
   11.9150   36.1950   12.3750 C   0  0  0  0  0  0
   11.4880   37.4030   12.9020 N   0  0  0  0  0  0
   10.6720   37.3690   14.0010 C   0  0  0  0  0  0
    8.8132   42.5184   17.6339 H   0  0  0  0  0  0
   10.0574   41.3325   18.1554 H   0  0  0  0  0  0
   10.6576   42.4348   16.0389 H   0  0  0  0  0  0
    7.8915   42.0792   15.2767 H   0  0  0  0  0  0
    9.2569   43.9375   14.5808 H   0  0  0  0  0  0
    8.0238   39.9212   14.2324 H   0  0  0  0  0  0
    8.0722   41.2836   12.2589 H   0  0  0  0  0  0
   10.9834   39.9560   13.7484 H   0  0  0  0  0  0
    8.8060   38.2840   16.5100 H   0  0  0  0  0  0
    9.6675   33.8139   15.4997 H   0  0  0  0  0  0
   10.7003   32.8503   14.2211 H   0  0  0  0  0  0
   12.5410   36.1900   11.4950 H   0  0  0  0  0  0
  1  2  2  0  0  0
  1  3  1  0  0  0
  1  4  1  0  0  0
  1  5  1  0  0  0
  5  6  1  0  0  0
  6  7  1  0  0  0
  6 24  1  0  0  0
  6 25  1  0  0  0
  7  8  1  0  0  0
  7  9  1  0  0  0
  7 26  1  0  0  0
  8 13  1  0  0  0
  9 10  1  0  0  0
  9 11  1  0  0  0
  9 27  1  0  0  0
 10 28  1  0  0  0
 11 12  1  0  0  0
 11 13  1  0  0  0
 11 29  1  0  0  0
 12 30  1  0  0  0
 13 14  1  0  0  0
 13 31  1  0  0  0
 14 15  1  0  0  0
 14 23  1  0  0  0
 15 16  2  0  0  0
 15 32  1  0  0  0
 16 17  1  0  0  0
 17 18  2  0  0  0
 17 23  1  0  0  0
 18 19  1  0  0  0
 18 20  1  0  0  0
 19 33  1  0  0  0
 19 34  1  0  0  0
 20 21  2  0  0  0
 21 22  1  0  0  0
 21 35  1  0  0  0
 22 23  2  0  0  0
M  CHG  2   3  -1   4  -1
M  END
> <s_m_source_file>
/cbio/jclab/home/rustenburg/PFK/Epik-Ligands/Results/InProgress/ADENOSINE MONOPHOSPHATE/pH_10.0/ADENOSINE MONOPHOSPHATE_pH_10.0-before_epik.mol2

> <i_m_source_file_index>
1

> <r_lp_tautomer_probability>
0.999997216410988

> <r_epik_Ionization_Penalty>
  0.0044

> <r_epik_Ionization_Penalty_Charging>
  0.0001

> <r_epik_Ionization_Penalty_Neutral>
  0.0043

> <r_epik_State_Penalty>
  0.0030

> <r_epik_Charging_Adjusted_Penalty>
0.00307330297267936

> <i_epik_Tot_Q>
-2

> <i_epik_Tot_abs_Q>
2

> <s_epik_Chemistry_Notes>
This compound contains an acetal/aminal-like group ( X-CH(R)-Y where X, Y are N, S, or O) that may be acid/base labile, releasing an aldehyde.

$$$$
AMP
                    3D
 Structure written by MMmdl.
 34 36  0  0  1  0            999 V2000
    8.0430   39.6860   18.8130 P   0  0  0  0  0  0
    7.7740   40.6370   19.9950 O   0  0  0  0  0  0
    6.8830   38.7840   18.6430 O   0  5  0  0  0  0
    9.3160   38.8560   19.0920 O   0  5  0  0  0  0
    8.2900   40.5340   17.4630 O   0  0  0  0  0  0
    9.2750   41.5450   17.4120 C   0  0  0  0  0  0
    9.9220   41.6170   16.0320 C   0  0  1  0  0  0
   10.6260   40.4170   15.7520 O   0  0  0  0  0  0
    8.8990   41.8150   14.9230 C   0  0  1  0  0  0
    9.2380   42.9330   14.1330 O   0  0  0  0  0  0
    8.9330   40.5290   14.1140 C   0  0  1  0  0  0
    8.9320   40.7810   12.7260 O   0  5  0  0  0  0
   10.2200   39.8280   14.5300 C   0  0  2  0  0  0
   10.0930   38.3690   14.7560 N   0  0  0  0  0  0
    9.3770   37.7670   15.7530 C   0  0  0  0  0  0
    9.4950   36.4180   15.6450 N   0  0  0  0  0  0
   10.2870   36.1600   14.5860 C   0  0  0  0  0  0
   10.7070   34.9510   14.0630 C   0  0  0  0  0  0
   10.3370   33.8060   14.6270 N   0  0  0  0  0  0
   11.5510   34.9950   12.9590 N   0  0  0  0  0  0
   11.9150   36.1950   12.3750 C   0  0  0  0  0  0
   11.4880   37.4030   12.9020 N   0  0  0  0  0  0
   10.6720   37.3690   14.0010 C   0  0  0  0  0  0
    8.8132   42.5184   17.6339 H   0  0  0  0  0  0
   10.0574   41.3325   18.1554 H   0  0  0  0  0  0
   10.6576   42.4348   16.0389 H   0  0  0  0  0  0
    7.8915   42.0792   15.2767 H   0  0  0  0  0  0
    9.2569   43.9375   14.5808 H   0  0  0  0  0  0
    8.0238   39.9212   14.2324 H   0  0  0  0  0  0
   10.9834   39.9560   13.7484 H   0  0  0  0  0  0
    8.8060   38.2840   16.5100 H   0  0  0  0  0  0
    9.6675   33.8139   15.4997 H   0  0  0  0  0  0
   10.7003   32.8503   14.2211 H   0  0  0  0  0  0
   12.5410   36.1900   11.4950 H   0  0  0  0  0  0
  1  2  2  0  0  0
  1  3  1  0  0  0
  1  4  1  0  0  0
  1  5  1  0  0  0
  5  6  1  0  0  0
  6  7  1  0  0  0
  6 24  1  0  0  0
  6 25  1  0  0  0
  7  8  1  0  0  0
  7  9  1  0  0  0
  7 26  1  0  0  0
  8 13  1  0  0  0
  9 10  1  0  0  0
  9 11  1  0  0  0
  9 27  1  0  0  0
 10 28  1  0  0  0
 11 12  1  0  0  0
 11 13  1  0  0  0
 11 29  1  0  0  0
 13 14  1  0  0  0
 13 30  1  0  0  0
 14 15  1  0  0  0
 14 23  1  0  0  0
 15 16  2  0  0  0
 15 31  1  0  0  0
 16 17  1  0  0  0
 17 18  2  0  0  0
 17 23  1  0  0  0
 18 19  1  0  0  0
 18 20  1  0  0  0
 19 32  1  0  0  0
 19 33  1  0  0  0
 20 21  2  0  0  0
 21 22  1  0  0  0
 21 34  1  0  0  0
 22 23  2  0  0  0
M  CHG  3   3  -1   4  -1  12  -1
M  END
> <s_m_source_file>
/cbio/jclab/home/rustenburg/PFK/Epik-Ligands/Results/InProgress/ADENOSINE MONOPHOSPHATE/pH_10.0/ADENOSINE MONOPHOSPHATE_pH_10.0-before_epik.mol2

> <i_m_source_file_index>
1

> <r_lp_tautomer_probability>
0.999997216410988

> <r_epik_Ionization_Penalty>
  3.1496

> <r_epik_Ionization_Penalty_Charging>
  3.1491

> <r_epik_Ionization_Penalty_Neutral>
  0.0005

> <r_epik_State_Penalty>
  3.3600

> <r_epik_Charging_Adjusted_Penalty>
6.50911981402672

> <i_epik_Tot_Q>
-3

> <i_epik_Tot_abs_Q>
3

> <s_epik_Chemistry_Notes>
This compound contains an acetal/aminal-like group ( X-CH(R)-Y where X, Y are N, S, or O) that may be acid/base labile, releasing an aldehyde.

$$$$
AMP
                    3D
 Structure written by MMmdl.
 34 36  0  0  1  0            999 V2000
    8.0430   39.6860   18.8130 P   0  0  0  0  0  0
    7.7740   40.6370   19.9950 O   0  0  0  0  0  0
    6.8830   38.7840   18.6430 O   0  5  0  0  0  0
    9.3160   38.8560   19.0920 O   0  5  0  0  0  0
    8.2900   40.5340   17.4630 O   0  0  0  0  0  0
    9.2750   41.5450   17.4120 C   0  0  0  0  0  0
    9.9220   41.6170   16.0320 C   0  0  1  0  0  0
   10.6260   40.4170   15.7520 O   0  0  0  0  0  0
    8.8990   41.8150   14.9230 C   0  0  1  0  0  0
    9.2380   42.9330   14.1330 O   0  5  0  0  0  0
    8.9330   40.5290   14.1140 C   0  0  1  0  0  0
    8.9320   40.7810   12.7260 O   0  0  0  0  0  0
   10.2200   39.8280   14.5300 C   0  0  2  0  0  0
   10.0930   38.3690   14.7560 N   0  0  0  0  0  0
    9.3770   37.7670   15.7530 C   0  0  0  0  0  0
    9.4950   36.4180   15.6450 N   0  0  0  0  0  0
   10.2870   36.1600   14.5860 C   0  0  0  0  0  0
   10.7070   34.9510   14.0630 C   0  0  0  0  0  0
   10.3370   33.8060   14.6270 N   0  0  0  0  0  0
   11.5510   34.9950   12.9590 N   0  0  0  0  0  0
   11.9150   36.1950   12.3750 C   0  0  0  0  0  0
   11.4880   37.4030   12.9020 N   0  0  0  0  0  0
   10.6720   37.3690   14.0010 C   0  0  0  0  0  0
    8.8132   42.5184   17.6339 H   0  0  0  0  0  0
   10.0574   41.3325   18.1554 H   0  0  0  0  0  0
   10.6576   42.4348   16.0389 H   0  0  0  0  0  0
    7.8915   42.0792   15.2767 H   0  0  0  0  0  0
    8.0238   39.9212   14.2324 H   0  0  0  0  0  0
    8.0722   41.2836   12.2589 H   0  0  0  0  0  0
   10.9834   39.9560   13.7484 H   0  0  0  0  0  0
    8.8060   38.2840   16.5100 H   0  0  0  0  0  0
    9.6675   33.8139   15.4997 H   0  0  0  0  0  0
   10.7003   32.8503   14.2211 H   0  0  0  0  0  0
   12.5410   36.1900   11.4950 H   0  0  0  0  0  0
  1  2  2  0  0  0
  1  3  1  0  0  0
  1  4  1  0  0  0
  1  5  1  0  0  0
  5  6  1  0  0  0
  6  7  1  0  0  0
  6 24  1  0  0  0
  6 25  1  0  0  0
  7  8  1  0  0  0
  7  9  1  0  0  0
  7 26  1  0  0  0
  8 13  1  0  0  0
  9 10  1  0  0  0
  9 11  1  0  0  0
  9 27  1  0  0  0
 11 12  1  0  0  0
 11 13  1  0  0  0
 11 28  1  0  0  0
 12 29  1  0  0  0
 13 14  1  0  0  0
 13 30  1  0  0  0
 14 15  1  0  0  0
 14 23  1  0  0  0
 15 16  2  0  0  0
 15 31  1  0  0  0
 16 17  1  0  0  0
 17 18  2  0  0  0
 17 23  1  0  0  0
 18 19  1  0  0  0
 18 20  1  0  0  0
 19 32  1  0  0  0
 19 33  1  0  0  0
 20 21  2  0  0  0
 21 22  1  0  0  0
 21 34  1  0  0  0
 22 23  2  0  0  0
M  CHG  3   3  -1   4  -1  10  -1
M  END
> <s_m_source_file>
/cbio/jclab/home/rustenburg/PFK/Epik-Ligands/Results/InProgress/ADENOSINE MONOPHOSPHATE/pH_10.0/ADENOSINE MONOPHOSPHATE_pH_10.0-before_epik.mol2

> <i_m_source_file_index>
1

> <r_epik_Ionization_Penalty>
  3.9338

> <r_epik_Ionization_Penalty_Charging>
  3.9332

> <r_epik_Ionization_Penalty_Neutral>
  0.0006

> <r_epik_State_Penalty>
  4.1990

> <r_epik_Charging_Adjusted_Penalty>
8.1322345348626

> <i_epik_Tot_Q>
-3

> <i_epik_Tot_abs_Q>
3

> <s_epik_Chemistry_Notes>
This compound contains an acetal/aminal-like group ( X-CH(R)-Y where X, Y are N, S, or O) that may be acid/base labile, releasing an aldehyde.

$$$$
AMP
                    3D
 Structure written by MMmdl.
 34 36  0  0  1  0            999 V2000
    8.0430   39.6860   18.8130 P   0  0  0  0  0  0
    7.7740   40.6370   19.9950 O   0  0  0  0  0  0
    6.8830   38.7840   18.6430 O   0  5  0  0  0  0
    9.3160   38.8560   19.0920 O   0  5  0  0  0  0
    8.2900   40.5340   17.4630 O   0  0  0  0  0  0
    9.2750   41.5450   17.4120 C   0  0  0  0  0  0
    9.9220   41.6170   16.0320 C   0  0  1  0  0  0
   10.6260   40.4170   15.7520 O   0  0  0  0  0  0
    8.8990   41.8150   14.9230 C   0  0  1  0  0  0
    9.2380   42.9330   14.1330 O   0  0  0  0  0  0
    8.9330   40.5290   14.1140 C   0  0  1  0  0  0
    8.9320   40.7810   12.7260 O   0  0  0  0  0  0
   10.2200   39.8280   14.5300 C   0  0  2  0  0  0
   10.0930   38.3690   14.7560 N   0  0  0  0  0  0
    9.3770   37.7670   15.7530 C   0  0  0  0  0  0
    9.4950   36.4180   15.6450 N   0  0  0  0  0  0
   10.2870   36.1600   14.5860 C   0  0  0  0  0  0
   10.7070   34.9510   14.0630 C   0  0  0  0  0  0
   10.3370   33.8060   14.6270 N   0  5  0  0  0  0
   11.5510   34.9950   12.9590 N   0  0  0  0  0  0
   11.9150   36.1950   12.3750 C   0  0  0  0  0  0
   11.4880   37.4030   12.9020 N   0  0  0  0  0  0
   10.6720   37.3690   14.0010 C   0  0  0  0  0  0
    8.8132   42.5184   17.6339 H   0  0  0  0  0  0
   10.0574   41.3325   18.1554 H   0  0  0  0  0  0
   10.6576   42.4348   16.0389 H   0  0  0  0  0  0
    7.8915   42.0792   15.2767 H   0  0  0  0  0  0
    9.2569   43.9375   14.5808 H   0  0  0  0  0  0
    8.0238   39.9212   14.2324 H   0  0  0  0  0  0
    8.0722   41.2836   12.2589 H   0  0  0  0  0  0
   10.9834   39.9560   13.7484 H   0  0  0  0  0  0
    8.8060   38.2840   16.5100 H   0  0  0  0  0  0
    9.6675   33.8139   15.4997 H   0  0  0  0  0  0
   12.5410   36.1900   11.4950 H   0  0  0  0  0  0
  1  2  2  0  0  0
  1  3  1  0  0  0
  1  4  1  0  0  0
  1  5  1  0  0  0
  5  6  1  0  0  0
  6  7  1  0  0  0
  6 24  1  0  0  0
  6 25  1  0  0  0
  7  8  1  0  0  0
  7  9  1  0  0  0
  7 26  1  0  0  0
  8 13  1  0  0  0
  9 10  1  0  0  0
  9 11  1  0  0  0
  9 27  1  0  0  0
 10 28  1  0  0  0
 11 12  1  0  0  0
 11 13  1  0  0  0
 11 29  1  0  0  0
 12 30  1  0  0  0
 13 14  1  0  0  0
 13 31  1  0  0  0
 14 15  1  0  0  0
 14 23  1  0  0  0
 15 16  2  0  0  0
 15 32  1  0  0  0
 16 17  1  0  0  0
 17 18  2  0  0  0
 17 23  1  0  0  0
 18 19  1  0  0  0
 18 20  1  0  0  0
 19 33  1  0  0  0
 20 21  2  0  0  0
 21 22  1  0  0  0
 21 34  1  0  0  0
 22 23  2  0  0  0
M  CHG  3   3  -1   4  -1  19  -1
M  END
> <s_m_source_file>
/cbio/jclab/home/rustenburg/PFK/Epik-Ligands/Results/InProgress/ADENOSINE MONOPHOSPHATE/pH_10.0/ADENOSINE MONOPHOSPHATE_pH_10.0-before_epik.mol2

> <i_m_source_file_index>
1

> <r_epik_Ionization_Penalty>
  4.1192

> <r_epik_Ionization_Penalty_Charging>
  4.1154

> <r_epik_Ionization_Penalty_Neutral>
  0.0038

> <r_epik_State_Penalty>
  4.3937

> <r_epik_Charging_Adjusted_Penalty>
8.50918952322024

> <i_epik_Tot_Q>
-3

> <i_epik_Tot_abs_Q>
3

> <s_epik_Chemistry_Notes>
This compound contains an acetal/aminal-like group ( X-CH(R)-Y where X, Y are N, S, or O) that may be acid/base labile, releasing an aldehyde.

$$$$
AMP
                    3D
 Structure written by MMmdl.
 36 38  0  0  1  0            999 V2000
    8.0430   39.6860   18.8130 P   0  0  0  0  0  0
    7.7740   40.6370   19.9950 O   0  0  0  0  0  0
    6.8830   38.7840   18.6430 O   0  5  0  0  0  0
    9.3160   38.8560   19.0920 O   0  0  0  0  0  0
    8.2900   40.5340   17.4630 O   0  0  0  0  0  0
    9.2750   41.5450   17.4120 C   0  0  0  0  0  0
    9.9220   41.6170   16.0320 C   0  0  1  0  0  0
   10.6260   40.4170   15.7520 O   0  0  0  0  0  0
    8.8990   41.8150   14.9230 C   0  0  1  0  0  0
    9.2380   42.9330   14.1330 O   0  0  0  0  0  0
    8.9330   40.5290   14.1140 C   0  0  1  0  0  0
    8.9320   40.7810   12.7260 O   0  0  0  0  0  0
   10.2200   39.8280   14.5300 C   0  0  2  0  0  0
   10.0930   38.3690   14.7560 N   0  0  0  0  0  0
    9.3770   37.7670   15.7530 C   0  0  0  0  0  0
    9.4950   36.4180   15.6450 N   0  0  0  0  0  0
   10.2870   36.1600   14.5860 C   0  0  0  0  0  0
   10.7070   34.9510   14.0630 C   0  0  0  0  0  0
   10.3370   33.8060   14.6270 N   0  0  0  0  0  0
   11.5510   34.9950   12.9590 N   0  0  0  0  0  0
   11.9150   36.1950   12.3750 C   0  0  0  0  0  0
   11.4880   37.4030   12.9020 N   0  0  0  0  0  0
   10.6720   37.3690   14.0010 C   0  0  0  0  0  0
    9.3624   38.1996   19.9735 H   0  0  0  0  0  0
    8.8132   42.5184   17.6339 H   0  0  0  0  0  0
   10.0574   41.3325   18.1554 H   0  0  0  0  0  0
   10.6576   42.4348   16.0389 H   0  0  0  0  0  0
    7.8915   42.0792   15.2767 H   0  0  0  0  0  0
    9.2569   43.9375   14.5808 H   0  0  0  0  0  0
    8.0238   39.9212   14.2324 H   0  0  0  0  0  0
    8.0722   41.2836   12.2589 H   0  0  0  0  0  0
   10.9834   39.9560   13.7484 H   0  0  0  0  0  0
    8.8060   38.2840   16.5100 H   0  0  0  0  0  0
    9.6675   33.8139   15.4997 H   0  0  0  0  0  0
   10.7003   32.8503   14.2211 H   0  0  0  0  0  0
   12.5410   36.1900   11.4950 H   0  0  0  0  0  0
  1  2  2  0  0  0
  1  3  1  0  0  0
  1  4  1  0  0  0
  1  5  1  0  0  0
  4 24  1  0  0  0
  5  6  1  0  0  0
  6  7  1  0  0  0
  6 25  1  0  0  0
  6 26  1  0  0  0
  7  8  1  0  0  0
  7  9  1  0  0  0
  7 27  1  0  0  0
  8 13  1  0  0  0
  9 10  1  0  0  0
  9 11  1  0  0  0
  9 28  1  0  0  0
 10 29  1  0  0  0
 11 12  1  0  0  0
 11 13  1  0  0  0
 11 30  1  0  0  0
 12 31  1  0  0  0
 13 14  1  0  0  0
 13 32  1  0  0  0
 14 15  1  0  0  0
 14 23  1  0  0  0
 15 16  2  0  0  0
 15 33  1  0  0  0
 16 17  1  0  0  0
 17 18  2  0  0  0
 17 23  1  0  0  0
 18 19  1  0  0  0
 18 20  1  0  0  0
 19 34  1  0  0  0
 19 35  1  0  0  0
 20 21  2  0  0  0
 21 22  1  0  0  0
 21 36  1  0  0  0
 22 23  2  0  0  0
M  CHG  1   3  -1
M  END
> <s_m_source_file>
/cbio/jclab/home/rustenburg/PFK/Epik-Ligands/Results/InProgress/ADENOSINE MONOPHOSPHATE/pH_10.0/ADENOSINE MONOPHOSPHATE_pH_10.0-before_epik.mol2

> <i_m_source_file_index>
1

> <r_lp_tautomer_probability>
0.999997216410988

> <r_epik_Ionization_Penalty>
  5.0898

> <r_epik_Ionization_Penalty_Charging>
  0.0000

> <r_epik_Ionization_Penalty_Neutral>
  5.0898

> <r_epik_State_Penalty>
  5.4272

> <r_epik_Charging_Adjusted_Penalty>
5.42719421064097

> <i_epik_Tot_Q>
-1

> <i_epik_Tot_abs_Q>
1

> <s_epik_Chemistry_Notes>
This compound contains an acetal/aminal-like group ( X-CH(R)-Y where X, Y are N, S, or O) that may be acid/base labile, releasing an aldehyde.

$$$$
