AMP
  CCTOOLS-0326171057

 37 39  0  0  1  0  0  0  0  0999 V2000
    8.0430   39.6860   18.8130 P   0  0  0  0  0
    7.7740   40.6370   19.9950 O   0  0  0  0  0
    6.8830   38.7840   18.6430 O   0  0  0  0  0
    9.3160   38.8560   19.0920 O   0  0  0  0  0
    8.2900   40.5340   17.4630 O   0  0  0  0  0
    9.2750   41.5450   17.4120 C   0  0  0  0  0
    9.9220   41.6170   16.0320 C   0  0  0  0  0
   10.6260   40.4170   15.7520 O   0  0  0  0  0
    8.8990   41.8150   14.9230 C   0  0  0  0  0
    9.2380   42.9330   14.1330 O   0  0  0  0  0
    8.9330   40.5290   14.1140 C   0  0  0  0  0
    8.9320   40.7810   12.7260 O   0  0  0  0  0
   10.2200   39.8280   14.5300 C   0  0  0  0  0
   10.0930   38.3690   14.7560 N   0  0  0  0  0
    9.3770   37.7670   15.7530 C   0  0  0  0  0
    9.4950   36.4180   15.6450 N   0  0  0  0  0
   10.2870   36.1600   14.5860 C   0  0  0  0  0
   10.7070   34.9510   14.0630 C   0  0  0  0  0
   10.3370   33.8060   14.6270 N   0  0  0  0  0
   11.5510   34.9950   12.9590 N   0  0  0  0  0
   11.9150   36.1950   12.3750 C   0  0  0  0  0
   11.4880   37.4030   12.9020 N   0  0  0  0  0
   10.6720   37.3690   14.0010 C   0  0  0  0  0
    6.2250   38.9860   19.2980 H   0  0  0  0  0
    9.6750   39.1010   19.9370 H   0  0  0  0  0
    8.8070   42.5140   17.6390 H   0  0  0  0  0
   10.0510   41.3280   18.1610 H   0  0  0  0  0
   10.6180   42.4690   16.0190 H   0  0  0  0  0
    7.9010   41.9380   15.3680 H   0  0  0  0  0
    8.5910   43.0440   13.4460 H   0  0  0  0  0
    8.0740   39.9020   14.3960 H   0  0  0  0  0
    8.9540   39.9570   12.2540 H   0  0  0  0  0
   10.9810   40.0060   13.7560 H   0  0  0  0  0
    8.8060   38.2840   16.5100 H   0  0  0  0  0
   10.7550   33.0420   14.1360 H   0  0  0  0  0
   10.6360   33.7930   15.5810 H   0  0  0  0  0
   12.5410   36.1900   11.4950 H   0  0  0  0  0
  1  2  2  0  0  0
  1  3  1  0  0  0
  1  4  1  0  0  0
  1  5  1  0  0  0
  3 24  1  0  0  0
  4 25  1  0  0  0
  5  6  1  0  0  0
  6  7  1  0  0  0
  6 26  1  0  0  0
  6 27  1  0  0  0
  7  8  1  0  0  0
  7  9  1  0  0  0
  7 28  1  0  0  0
  8 13  1  0  0  0
  9 10  1  0  0  0
  9 11  1  0  0  0
  9 29  1  0  0  0
 10 30  1  0  0  0
 11 12  1  0  0  0
 11 13  1  0  0  0
 11 31  1  0  0  0
 12 32  1  0  0  0
 13 14  1  0  0  0
 13 33  1  0  0  0
 14 15  1  0  0  0
 14 23  1  0  0  0
 15 16  2  0  0  0
 15 34  1  0  0  0
 16 17  1  0  0  0
 17 18  1  0  0  0
 17 23  2  0  0  0
 18 19  1  0  0  0
 18 20  2  0  0  0
 19 35  1  0  0  0
 19 36  1  0  0  0
 20 21  1  0  0  0
 21 22  2  0  0  0
 21 37  1  0  0  0
 22 23  1  0  0  0
M  END
$$$$
