GSH
  CCTOOLS-0326171052

 37 36  0  0  1  0  0  0  0  0999 V2000
   29.4280   55.6180   21.0350 N   0  0  0  0  0
   30.8570   55.3600   20.8190 C   0  0  0  0  0
   31.1720   53.8470   20.7060 C   0  0  0  0  0
   32.1690   53.4940   20.0680 O   0  0  0  0  0
   30.3380   53.0180   21.3090 O   0  0  0  0  0
   31.6820   56.0170   21.9480 C   0  0  0  0  0
   33.1680   56.2360   21.5350 C   0  0  0  0  0
   33.9430   56.7830   22.7670 C   0  0  0  0  0
   33.3750   57.4490   23.6470 O   0  0  0  0  0
   35.2490   56.4840   22.7930 N   0  0  0  0  0
   36.1160   57.1670   23.7590 C   0  0  0  0  0
   37.3460   57.7140   23.0170 C   0  0  0  0  0
   38.4710   57.7550   23.5310 O   0  0  0  0  0
   36.6120   56.1590   24.8260 C   0  0  0  0  0
   35.2670   55.4640   25.8370 S   0  0  0  0  0
   37.1200   58.1640   21.7610 N   0  0  0  0  0
   38.1830   58.6980   20.8980 C   0  0  0  0  0
   37.9070   60.1660   20.6210 C   0  0  0  0  0
   38.5800   60.6930   19.7190 O   0  0  0  0  0
   37.0370   60.7560   21.3120 O   0  0  0  0  0
   29.2730   56.6040   21.1010 H   0  0  0  0  0
   28.9030   55.2490   20.2680 H   0  0  0  0  0
   31.1570   55.8320   19.8720 H   0  0  0  0  0
   30.6270   52.1230   21.1730 H   0  0  0  0  0
   31.2350   56.9910   22.1940 H   0  0  0  0  0
   31.6520   55.3660   22.8340 H   0  0  0  0  0
   33.6090   55.2810   21.2130 H   0  0  0  0  0
   33.2210   56.9620   20.7100 H   0  0  0  0  0
   35.6270   55.8050   22.1630 H   0  0  0  0  0
   35.5800   57.9920   24.2510 H   0  0  0  0  0
   37.1270   55.3330   24.3140 H   0  0  0  0  0
   37.3190   56.6750   25.4920 H   0  0  0  0  0
   35.9130   54.6690   26.6370 H   0  0  0  0  0
   36.1870   58.1320   21.4040 H   0  0  0  0  0
   39.1550   58.5950   21.4030 H   0  0  0  0  0
   38.2020   58.1410   19.9490 H   0  0  0  0  0
   36.9760   61.6630   21.0370 H   0  0  0  0  0
  1  2  1  0  0  0
  1 21  1  0  0  0
  1 22  1  0  0  0
  2  3  1  0  0  0
  2  6  1  0  0  0
  2 23  1  0  0  0
  3  4  2  0  0  0
  3  5  1  0  0  0
  5 24  1  0  0  0
  6  7  1  0  0  0
  6 25  1  0  0  0
  6 26  1  0  0  0
  7  8  1  0  0  0
  7 27  1  0  0  0
  7 28  1  0  0  0
  8  9  2  0  0  0
  8 10  1  0  0  0
 10 11  1  0  0  0
 10 29  1  0  0  0
 11 12  1  0  0  0
 11 14  1  0  0  0
 11 30  1  0  0  0
 12 13  2  0  0  0
 12 16  1  0  0  0
 14 15  1  0  0  0
 14 31  1  0  0  0
 14 32  1  0  0  0
 15 33  1  0  0  0
 16 17  1  0  0  0
 16 34  1  0  0  0
 17 18  1  0  0  0
 17 35  1  0  0  0
 17 36  1  0  0  0
 18 19  2  0  0  0
 18 20  1  0  0  0
 20 37  1  0  0  0
M  END
$$$$
