@<TRIPOS>MOLECULE
MAL
   45    46     1     0     0
SMALL
NO_CHARGES

@<TRIPOS>ATOM
      1  C1        81.3110   64.7430   44.7180 C.3       1 MAL         0.0000
      2  C2        80.6630   63.5580   45.4040 C.3       1 MAL         0.0000
      3  C3        81.1960   62.2940   44.7900 C.3       1 MAL         0.0000
      4  C4        80.8750   62.3250   43.3080 C.3       1 MAL         0.0000
      5  C5        81.5630   63.5230   42.6670 C.3       1 MAL         0.0000
      6  C6        81.2720   63.6930   41.2010 C.3       1 MAL         0.0000
      7  O1        82.6920   64.6720   44.9600 O.3       1 MAL         0.0000
      8  O2        80.9470   63.5360   46.7970 O.3       1 MAL         0.0000
      9  O3        80.5790   61.1520   45.3770 O.3       1 MAL         0.0000
     10  O4        81.3410   61.1500   42.6620 O.3       1 MAL         0.0000
     11  O5        81.1580   64.7380   43.3070 O.3       1 MAL         0.0000
     12  O6        82.1520   64.6320   40.5650 O.3       1 MAL         0.0000
     13  C1'       85.4010   67.4610   46.5160 C.3       1 MAL         0.0000
     14  C2'       84.4510   66.7680   47.4730 C.3       1 MAL         0.0000
     15  C3'       83.7780   65.5300   46.9150 C.3       1 MAL         0.0000
     16  C4'       83.2740   65.8600   45.5200 C.3       1 MAL         0.0000
     17  C5'       84.4050   66.3270   44.6070 C.3       1 MAL         0.0000
     18  C6'       83.8530   66.7020   43.2520 C.3       1 MAL         0.0000
     19  O1'       86.7270   67.0920   46.6550 O.3       1 MAL         0.0000
     20  O2'       85.0120   66.5480   48.7770 O.3       1 MAL         0.0000
     21  O3'       82.7470   65.0470   47.7800 O.3       1 MAL         0.0000
     22  O5'       84.9780   67.5220   45.1480 O.3       1 MAL         0.0000
     23  O6'       84.4550   65.8750   42.2450 O.3       1 MAL         0.0000
     24  H1        80.8200   65.6590   45.1220 H         1 MAL         0.0000
     25  H2        79.5590   63.6410   45.2710 H         1 MAL         0.0000
     26  H3        82.2950   62.2280   44.9620 H         1 MAL         0.0000
     27  H4        79.7670   62.3930   43.1950 H         1 MAL         0.0000
     28  H5        82.6510   63.3170   42.7920 H         1 MAL         0.0000
     29  H61       81.2870   62.7100   40.6740 H         1 MAL         0.0000
     30  H62       80.2040   63.9700   41.0350 H         1 MAL         0.0000
     31  HO2       80.5400   62.7920   47.2270 H         1 MAL         0.0000
     32  HO3       80.9150   60.3530   44.9880 H         1 MAL         0.0000
     33  HO4       81.1390   61.1690   41.7330 H         1 MAL         0.0000
     34  HO6       81.9680   64.7390   39.6390 H         1 MAL         0.0000
     35  H1'       85.3430   68.5190   46.8620 H         1 MAL         0.0000
     36  H2'       83.6260   67.5060   47.6040 H         1 MAL         0.0000
     37  H3'       84.5100   64.6920   46.8480 H         1 MAL         0.0000
     38  H4'       82.5280   66.6850   45.5980 H         1 MAL         0.0000
     39  H5'       85.1520   65.5040   44.5230 H         1 MAL         0.0000
     40 H6'1       82.7390   66.6570   43.2230 H         1 MAL         0.0000
     41 H6'2       83.9740   67.7880   43.0330 H         1 MAL         0.0000
     42 HO1'       87.3220   67.5260   46.0550 H         1 MAL         0.0000
     43 HO2'       84.4160   66.1130   49.3760 H         1 MAL         0.0000
     44 HO3'       82.3250   64.2710   47.4300 H         1 MAL         0.0000
     45 HO6'       84.1070   66.1100   41.3920 H         1 MAL         0.0000
@<TRIPOS>BOND
     1    1    2 1
     2    1    7 1
     3    1   11 1
     4    1   24 1
     5    2    3 1
     6    2    8 1
     7    2   25 1
     8    3    4 1
     9    3    9 1
    10    3   26 1
    11    4    5 1
    12    4   10 1
    13    4   27 1
    14    5    6 1
    15    5   11 1
    16    5   28 1
    17    6   12 1
    18    6   29 1
    19    6   30 1
    20    7   16 1
    21    8   31 1
    22    9   32 1
    23   10   33 1
    24   12   34 1
    25   13   14 1
    26   13   19 1
    27   13   22 1
    28   13   35 1
    29   14   15 1
    30   14   20 1
    31   14   36 1
    32   15   16 1
    33   15   21 1
    34   15   37 1
    35   16   17 1
    36   16   38 1
    37   17   18 1
    38   17   22 1
    39   17   39 1
    40   18   23 1
    41   18   40 1
    42   18   41 1
    43   19   42 1
    44   20   43 1
    45   21   44 1
    46   23   45 1
@<TRIPOS>SUBSTRUCTURE
     1 MAL         1 GROUP 0 A     ****
