MAL
  CCTOOLS-0326171058

 45 46  0  0  1  0  0  0  0  0999 V2000
   81.3110   64.7430   44.7180 C   0  0  0  0  0
   80.6630   63.5580   45.4040 C   0  0  0  0  0
   81.1960   62.2940   44.7900 C   0  0  0  0  0
   80.8750   62.3250   43.3080 C   0  0  0  0  0
   81.5630   63.5230   42.6670 C   0  0  0  0  0
   81.2720   63.6930   41.2010 C   0  0  0  0  0
   82.6920   64.6720   44.9600 O   0  0  0  0  0
   80.9470   63.5360   46.7970 O   0  0  0  0  0
   80.5790   61.1520   45.3770 O   0  0  0  0  0
   81.3410   61.1500   42.6620 O   0  0  0  0  0
   81.1580   64.7380   43.3070 O   0  0  0  0  0
   82.1520   64.6320   40.5650 O   0  0  0  0  0
   85.4010   67.4610   46.5160 C   0  0  0  0  0
   84.4510   66.7680   47.4730 C   0  0  0  0  0
   83.7780   65.5300   46.9150 C   0  0  0  0  0
   83.2740   65.8600   45.5200 C   0  0  0  0  0
   84.4050   66.3270   44.6070 C   0  0  0  0  0
   83.8530   66.7020   43.2520 C   0  0  0  0  0
   86.7270   67.0920   46.6550 O   0  0  0  0  0
   85.0120   66.5480   48.7770 O   0  0  0  0  0
   82.7470   65.0470   47.7800 O   0  0  0  0  0
   84.9780   67.5220   45.1480 O   0  0  0  0  0
   84.4550   65.8750   42.2450 O   0  0  0  0  0
   80.8200   65.6590   45.1220 H   0  0  0  0  0
   79.5590   63.6410   45.2710 H   0  0  0  0  0
   82.2950   62.2280   44.9620 H   0  0  0  0  0
   79.7670   62.3930   43.1950 H   0  0  0  0  0
   82.6510   63.3170   42.7920 H   0  0  0  0  0
   81.2870   62.7100   40.6740 H   0  0  0  0  0
   80.2040   63.9700   41.0350 H   0  0  0  0  0
   80.5400   62.7920   47.2270 H   0  0  0  0  0
   80.9150   60.3530   44.9880 H   0  0  0  0  0
   81.1390   61.1690   41.7330 H   0  0  0  0  0
   81.9680   64.7390   39.6390 H   0  0  0  0  0
   85.3430   68.5190   46.8620 H   0  0  0  0  0
   83.6260   67.5060   47.6040 H   0  0  0  0  0
   84.5100   64.6920   46.8480 H   0  0  0  0  0
   82.5280   66.6850   45.5980 H   0  0  0  0  0
   85.1520   65.5040   44.5230 H   0  0  0  0  0
   82.7390   66.6570   43.2230 H   0  0  0  0  0
   83.9740   67.7880   43.0330 H   0  0  0  0  0
   87.3220   67.5260   46.0550 H   0  0  0  0  0
   84.4160   66.1130   49.3760 H   0  0  0  0  0
   82.3250   64.2710   47.4300 H   0  0  0  0  0
   84.1070   66.1100   41.3920 H   0  0  0  0  0
  1  2  1  0  0  0
  1  7  1  0  0  0
  1 11  1  0  0  0
  1 24  1  0  0  0
  2  3  1  0  0  0
  2  8  1  0  0  0
  2 25  1  0  0  0
  3  4  1  0  0  0
  3  9  1  0  0  0
  3 26  1  0  0  0
  4  5  1  0  0  0
  4 10  1  0  0  0
  4 27  1  0  0  0
  5  6  1  0  0  0
  5 11  1  0  0  0
  5 28  1  0  0  0
  6 12  1  0  0  0
  6 29  1  0  0  0
  6 30  1  0  0  0
  7 16  1  0  0  0
  8 31  1  0  0  0
  9 32  1  0  0  0
 10 33  1  0  0  0
 12 34  1  0  0  0
 13 14  1  0  0  0
 13 19  1  0  0  0
 13 22  1  0  0  0
 13 35  1  0  0  0
 14 15  1  0  0  0
 14 20  1  0  0  0
 14 36  1  0  0  0
 15 16  1  0  0  0
 15 21  1  0  0  0
 15 37  1  0  0  0
 16 17  1  0  0  0
 16 38  1  0  0  0
 17 18  1  0  0  0
 17 22  1  0  0  0
 17 39  1  0  0  0
 18 23  1  0  0  0
 18 40  1  0  0  0
 18 41  1  0  0  0
 19 42  1  0  0  0
 20 43  1  0  0  0
 21 44  1  0  0  0
 23 45  1  0  0  0
M  END
$$$$
