FAD
                    3D
 Structure written by MMmdl.
 84 89  0  0  1  0            999 V2000
   21.8380    0.8050   23.1700 P   0  0  0  0  0  0
   21.3030   -0.5190   22.7220 O   0  0  0  0  0  0
   21.2420    1.9380   22.7450 O   0  5  0  0  0  0
   21.5190    0.6820   24.6440 O   0  0  0  0  0  0
   21.8970    1.6430   25.6850 C   0  0  0  0  0  0
   20.9970    1.3300   26.9450 C   0  0  1  0  0  0
   21.4600    2.2240   28.0530 O   0  0  0  0  0  0
   19.4600    1.6220   26.8060 C   0  0  1  0  0  0
   18.6710    0.5790   27.2900 O   0  0  0  0  0  0
   19.2980    2.9730   27.5740 C   0  0  1  0  0  0
   18.0040    3.1220   28.1030 O   0  0  0  0  0  0
   20.2760    2.7830   28.6990 C   0  0  2  0  0  0
   20.8010    4.0200   29.2670 N   0  0  0  0  0  0
   21.1540    5.1530   28.5750 C   0  0  0  0  0  0
   21.6680    6.0970   29.3600 N   0  0  0  0  0  0
   21.5630    5.5850   30.6310 C   0  0  0  0  0  0
   21.9270    6.1470   31.9320 C   0  0  0  0  0  0
   22.3520    7.3730   32.0980 N   0  0  0  0  0  0
   21.5850    5.3620   32.9970 N   0  0  0  0  0  0
   21.0280    4.1270   32.8470 C   0  0  0  0  0  0
   20.7580    3.4920   31.6950 N   0  0  0  0  0  0
   21.0940    4.2440   30.6070 C   0  0  0  0  0  0
   21.1130   -2.2310   14.3340 N   0  0  0  0  0  0
   21.3700   -3.3170   13.6190 C   0  0  0  0  0  0
   22.4720   -3.7950   13.5580 O   0  0  0  0  0  0
   20.3350   -4.0620   12.9920 N   0  0  0  0  0  0
   19.0640   -3.5450   12.8700 C   0  0  0  0  0  0
   18.2010   -4.1990   12.3240 O   0  0  0  0  0  0
   18.8420   -2.2200   13.4310 C   0  0  0  0  0  0
   17.6210   -1.6430   13.3240 N   0  0  0  0  0  0
   17.4010   -0.5070   14.0540 C   0  0  0  0  0  0
   16.0920    0.0300   14.0340 C   0  0  0  0  0  0
   15.7290    1.0490   14.8790 C   0  0  0  0  0  0
   14.3190    1.5870   14.8590 C   0  0  0  0  0  0
   16.6660    1.5470   15.8520 C   0  0  0  0  0  0
   16.3340    2.7180   16.7390 C   0  0  0  0  0  0
   17.9420    0.9810   15.9280 C   0  0  0  0  0  0
   18.3310    0.0200   14.9920 C   0  0  0  0  0  0
   19.6330   -0.5660   14.9940 N   0  0  0  0  0  0
   19.8920   -1.6530   14.2710 C   0  0  0  0  0  0
   20.6850    0.0690   15.8130 C   0  0  0  0  0  0
   21.0540   -0.7970   17.0450 C   0  0  2  0  0  0
   19.8580   -1.0730   17.7680 O   0  0  0  0  0  0
   21.9860    0.0460   17.9030 C   0  0  2  0  0  0
   23.1720    0.2940   17.1450 O   0  0  0  0  0  0
   22.3780   -0.7320   19.1670 C   0  0  2  0  0  0
   21.2310   -1.0360   19.9620 O   0  0  0  0  0  0
   23.3750    0.1170   19.9180 C   0  0  0  0  0  0
   23.8840   -0.6520   21.1830 O   0  0  0  0  0  0
   24.5070    0.1030   22.3450 P   0  0  0  0  0  0
   24.9820   -0.9910   23.3090 O   0  0  0  0  0  0
   25.4370    1.0540   21.9500 O   0  5  0  0  0  0
   23.4730    0.8660   23.0320 O   0  0  0  0  0  0
   22.9631    1.5210   25.9270 H   0  0  0  0  0  0
   21.7181    2.6659   25.3221 H   0  0  0  0  0  0
   21.1215    0.2571   27.1533 H   0  0  0  0  0  0
   19.0330    1.6103   25.7923 H   0  0  0  0  0  0
   18.7161   -0.4115   26.8137 H   0  0  0  0  0  0
   19.4002    3.8970   26.9859 H   0  0  0  0  0  0
   17.1481    3.2725   27.4286 H   0  0  0  0  0  0
   19.7898    2.2057   29.4992 H   0  0  0  0  0  0
   21.0350    5.2920   27.4870 H   0  0  0  0  0  0
   22.6212    7.9848   31.2244 H   0  0  0  0  0  0
   22.4402    7.7921   33.1112 H   0  0  0  0  0  0
   20.7640    3.5760   33.7660 H   0  0  0  0  0  0
   20.5432   -5.0668   12.5956 H   0  0  0  0  0  0
   15.3300   -0.3580   13.3370 H   0  0  0  0  0  0
   13.7503    1.0953   14.0560 H   0  0  0  0  0  0
   14.3431    2.6721   14.6799 H   0  0  0  0  0  0
   13.8360    1.3857   15.8266 H   0  0  0  0  0  0
   15.2979    3.0369   16.5527 H   0  0  0  0  0  0
   17.0190    3.5502   16.5193 H   0  0  0  0  0  0
   16.4427    2.4221   17.7929 H   0  0  0  0  0  0
   18.6390    1.2910   16.7230 H   0  0  0  0  0  0
   21.5903    0.2076   15.2038 H   0  0  0  0  0  0
   20.3307    1.0469   16.1710 H   0  0  0  0  0  0
   21.4878   -1.7791   16.8058 H   0  0  0  0  0  0
   19.0616   -1.6741   17.3048 H   0  0  0  0  0  0
   21.5298    1.0156   18.1516 H   0  0  0  0  0  0
   23.1120    0.8433   16.1939 H   0  0  0  0  0  0
   22.7871   -1.7307   18.9541 H   0  0  0  0  0  0
   20.4189   -1.6490   19.5440 H   0  0  0  0  0  0
   24.2294    0.3444   19.2636 H   0  0  0  0  0  0
   22.8943    1.0550   20.2327 H   0  0  0  0  0  0
  1  2  2  0  0  0
  1  3  1  0  0  0
  1  4  1  0  0  0
  1 53  1  0  0  0
  4  5  1  0  0  0
  5  6  1  0  0  0
  5 54  1  0  0  0
  5 55  1  0  0  0
  6  7  1  0  0  0
  6  8  1  0  0  0
  6 56  1  0  0  0
  7 12  1  0  0  0
  8  9  1  0  0  0
  8 10  1  0  0  0
  8 57  1  0  0  0
  9 58  1  0  0  0
 10 11  1  0  0  0
 10 12  1  0  0  0
 10 59  1  0  0  0
 11 60  1  0  0  0
 12 13  1  0  0  0
 12 61  1  0  0  0
 13 14  1  0  0  0
 13 22  1  0  0  0
 14 15  2  0  0  0
 14 62  1  0  0  0
 15 16  1  0  0  0
 16 17  2  0  0  0
 16 22  1  0  0  0
 17 18  1  0  0  0
 17 19  1  0  0  0
 18 63  1  0  0  0
 18 64  1  0  0  0
 19 20  2  0  0  0
 20 21  1  0  0  0
 20 65  1  0  0  0
 21 22  2  0  0  0
 23 24  1  0  0  0
 23 40  2  0  0  0
 24 25  2  0  0  0
 24 26  1  0  0  0
 26 27  1  0  0  0
 26 66  1  0  0  0
 27 28  2  0  0  0
 27 29  1  0  0  0
 29 30  2  0  0  0
 29 40  1  0  0  0
 30 31  1  0  0  0
 31 32  2  0  0  0
 31 38  1  0  0  0
 32 33  1  0  0  0
 32 67  1  0  0  0
 33 34  1  0  0  0
 33 35  2  0  0  0
 34 68  1  0  0  0
 34 69  1  0  0  0
 34 70  1  0  0  0
 35 36  1  0  0  0
 35 37  1  0  0  0
 36 71  1  0  0  0
 36 72  1  0  0  0
 36 73  1  0  0  0
 37 38  2  0  0  0
 37 74  1  0  0  0
 38 39  1  0  0  0
 39 40  1  0  0  0
 39 41  1  0  0  0
 41 42  1  0  0  0
 41 75  1  0  0  0
 41 76  1  0  0  0
 42 43  1  0  0  0
 42 44  1  0  0  0
 42 77  1  0  0  0
 43 78  1  0  0  0
 44 45  1  0  0  0
 44 46  1  0  0  0
 44 79  1  0  0  0
 45 80  1  0  0  0
 46 47  1  0  0  0
 46 48  1  0  0  0
 46 81  1  0  0  0
 47 82  1  0  0  0
 48 49  1  0  0  0
 48 83  1  0  0  0
 48 84  1  0  0  0
 49 50  1  0  0  0
 50 51  2  0  0  0
 50 52  1  0  0  0
 50 53  1  0  0  0
M  CHG  2   3  -1  52  -1
M  END
> <s_m_source_file>
/cbio/jclab/home/rustenburg/PFK/Epik-Ligands/Results/InProgress/FLAVIN-ADENINE DINUCLEOTIDE/pH_7.0/FLAVIN-ADENINE DINUCLEOTIDE_pH_7.0-before_epik.mol2

> <i_m_source_file_index>
1

> <r_lp_tautomer_probability>
0.999997216410988

> <r_epik_Ionization_Penalty>
  0.0016

> <r_epik_Ionization_Penalty_Charging>
  0.0012

> <r_epik_Ionization_Penalty_Neutral>
  0.0004

> <r_epik_State_Penalty>
  0.0012

> <r_epik_Charging_Adjusted_Penalty>
0.00234636509123324

> <i_epik_Tot_Q>
-2

> <i_epik_Tot_abs_Q>
2

> <s_epik_Chemistry_Notes>
This compound contains an acetal/aminal-like group ( X-CH(R)-Y where X, Y are N, S, or O) that may be acid/base labile, releasing an aldehyde.

$$$$
FAD
                    3D
 Structure written by MMmdl.
 83 88  0  0  1  0            999 V2000
   21.8380    0.8050   23.1700 P   0  0  0  0  0  0
   21.3030   -0.5190   22.7220 O   0  0  0  0  0  0
   21.2420    1.9380   22.7450 O   0  5  0  0  0  0
   21.5190    0.6820   24.6440 O   0  0  0  0  0  0
   21.8970    1.6430   25.6850 C   0  0  0  0  0  0
   20.9970    1.3300   26.9450 C   0  0  1  0  0  0
   21.4600    2.2240   28.0530 O   0  0  0  0  0  0
   19.4600    1.6220   26.8060 C   0  0  1  0  0  0
   18.6710    0.5790   27.2900 O   0  0  0  0  0  0
   19.2980    2.9730   27.5740 C   0  0  1  0  0  0
   18.0040    3.1220   28.1030 O   0  0  0  0  0  0
   20.2760    2.7830   28.6990 C   0  0  2  0  0  0
   20.8010    4.0200   29.2670 N   0  0  0  0  0  0
   21.1540    5.1530   28.5750 C   0  0  0  0  0  0
   21.6680    6.0970   29.3600 N   0  0  0  0  0  0
   21.5630    5.5850   30.6310 C   0  0  0  0  0  0
   21.9270    6.1470   31.9320 C   0  0  0  0  0  0
   22.3520    7.3730   32.0980 N   0  0  0  0  0  0
   21.5850    5.3620   32.9970 N   0  0  0  0  0  0
   21.0280    4.1270   32.8470 C   0  0  0  0  0  0
   20.7580    3.4920   31.6950 N   0  0  0  0  0  0
   21.0940    4.2440   30.6070 C   0  0  0  0  0  0
   21.1130   -2.2310   14.3340 N   0  0  0  0  0  0
   21.3700   -3.3170   13.6190 C   0  0  0  0  0  0
   22.4720   -3.7950   13.5580 O   0  5  0  0  0  0
   20.3350   -4.0620   12.9920 N   0  0  0  0  0  0
   19.0640   -3.5450   12.8700 C   0  0  0  0  0  0
   18.2010   -4.1990   12.3240 O   0  0  0  0  0  0
   18.8420   -2.2200   13.4310 C   0  0  0  0  0  0
   17.6210   -1.6430   13.3240 N   0  0  0  0  0  0
   17.4010   -0.5070   14.0540 C   0  0  0  0  0  0
   16.0920    0.0300   14.0340 C   0  0  0  0  0  0
   15.7290    1.0490   14.8790 C   0  0  0  0  0  0
   14.3190    1.5870   14.8590 C   0  0  0  0  0  0
   16.6660    1.5470   15.8520 C   0  0  0  0  0  0
   16.3340    2.7180   16.7390 C   0  0  0  0  0  0
   17.9420    0.9810   15.9280 C   0  0  0  0  0  0
   18.3310    0.0200   14.9920 C   0  0  0  0  0  0
   19.6330   -0.5660   14.9940 N   0  0  0  0  0  0
   19.8920   -1.6530   14.2710 C   0  0  0  0  0  0
   20.6850    0.0690   15.8130 C   0  0  0  0  0  0
   21.0540   -0.7970   17.0450 C   0  0  2  0  0  0
   19.8580   -1.0730   17.7680 O   0  0  0  0  0  0
   21.9860    0.0460   17.9030 C   0  0  2  0  0  0
   23.1720    0.2940   17.1450 O   0  0  0  0  0  0
   22.3780   -0.7320   19.1670 C   0  0  2  0  0  0
   21.2310   -1.0360   19.9620 O   0  0  0  0  0  0
   23.3750    0.1170   19.9180 C   0  0  0  0  0  0
   23.8840   -0.6520   21.1830 O   0  0  0  0  0  0
   24.5070    0.1030   22.3450 P   0  0  0  0  0  0
   24.9820   -0.9910   23.3090 O   0  0  0  0  0  0
   25.4370    1.0540   21.9500 O   0  5  0  0  0  0
   23.4730    0.8660   23.0320 O   0  0  0  0  0  0
   22.9631    1.5210   25.9270 H   0  0  0  0  0  0
   21.7181    2.6659   25.3221 H   0  0  0  0  0  0
   21.1215    0.2571   27.1533 H   0  0  0  0  0  0
   19.0330    1.6103   25.7923 H   0  0  0  0  0  0
   18.7161   -0.4115   26.8137 H   0  0  0  0  0  0
   19.4002    3.8970   26.9859 H   0  0  0  0  0  0
   17.1481    3.2725   27.4286 H   0  0  0  0  0  0
   19.7898    2.2057   29.4992 H   0  0  0  0  0  0
   21.0350    5.2920   27.4870 H   0  0  0  0  0  0
   22.6212    7.9848   31.2244 H   0  0  0  0  0  0
   22.4402    7.7921   33.1112 H   0  0  0  0  0  0
   20.7640    3.5760   33.7660 H   0  0  0  0  0  0
   15.3300   -0.3580   13.3370 H   0  0  0  0  0  0
   13.7503    1.0953   14.0560 H   0  0  0  0  0  0
   14.3431    2.6721   14.6799 H   0  0  0  0  0  0
   13.8360    1.3857   15.8266 H   0  0  0  0  0  0
   15.2979    3.0369   16.5527 H   0  0  0  0  0  0
   17.0190    3.5502   16.5193 H   0  0  0  0  0  0
   16.4427    2.4221   17.7929 H   0  0  0  0  0  0
   18.6390    1.2910   16.7230 H   0  0  0  0  0  0
   21.5903    0.2076   15.2038 H   0  0  0  0  0  0
   20.3307    1.0469   16.1710 H   0  0  0  0  0  0
   21.4878   -1.7791   16.8058 H   0  0  0  0  0  0
   19.0616   -1.6741   17.3048 H   0  0  0  0  0  0
   21.5298    1.0156   18.1516 H   0  0  0  0  0  0
   23.1120    0.8433   16.1939 H   0  0  0  0  0  0
   22.7871   -1.7307   18.9541 H   0  0  0  0  0  0
   20.4189   -1.6490   19.5440 H   0  0  0  0  0  0
   24.2294    0.3444   19.2636 H   0  0  0  0  0  0
   22.8943    1.0550   20.2327 H   0  0  0  0  0  0
  1  2  2  0  0  0
  1  3  1  0  0  0
  1  4  1  0  0  0
  1 53  1  0  0  0
  4  5  1  0  0  0
  5  6  1  0  0  0
  5 54  1  0  0  0
  5 55  1  0  0  0
  6  7  1  0  0  0
  6  8  1  0  0  0
  6 56  1  0  0  0
  7 12  1  0  0  0
  8  9  1  0  0  0
  8 10  1  0  0  0
  8 57  1  0  0  0
  9 58  1  0  0  0
 10 11  1  0  0  0
 10 12  1  0  0  0
 10 59  1  0  0  0
 11 60  1  0  0  0
 12 13  1  0  0  0
 12 61  1  0  0  0
 13 14  1  0  0  0
 13 22  1  0  0  0
 14 15  2  0  0  0
 14 62  1  0  0  0
 15 16  1  0  0  0
 16 17  2  0  0  0
 16 22  1  0  0  0
 17 18  1  0  0  0
 17 19  1  0  0  0
 18 63  1  0  0  0
 18 64  1  0  0  0
 19 20  2  0  0  0
 20 21  1  0  0  0
 20 65  1  0  0  0
 21 22  2  0  0  0
 23 24  1  0  0  0
 23 40  2  0  0  0
 24 25  1  0  0  0
 24 26  2  0  0  0
 26 27  1  0  0  0
 27 28  2  0  0  0
 27 29  1  0  0  0
 29 30  2  0  0  0
 29 40  1  0  0  0
 30 31  1  0  0  0
 31 32  2  0  0  0
 31 38  1  0  0  0
 32 33  1  0  0  0
 32 66  1  0  0  0
 33 34  1  0  0  0
 33 35  2  0  0  0
 34 67  1  0  0  0
 34 68  1  0  0  0
 34 69  1  0  0  0
 35 36  1  0  0  0
 35 37  1  0  0  0
 36 70  1  0  0  0
 36 71  1  0  0  0
 36 72  1  0  0  0
 37 38  2  0  0  0
 37 73  1  0  0  0
 38 39  1  0  0  0
 39 40  1  0  0  0
 39 41  1  0  0  0
 41 42  1  0  0  0
 41 74  1  0  0  0
 41 75  1  0  0  0
 42 43  1  0  0  0
 42 44  1  0  0  0
 42 76  1  0  0  0
 43 77  1  0  0  0
 44 45  1  0  0  0
 44 46  1  0  0  0
 44 78  1  0  0  0
 45 79  1  0  0  0
 46 47  1  0  0  0
 46 48  1  0  0  0
 46 80  1  0  0  0
 47 81  1  0  0  0
 48 49  1  0  0  0
 48 82  1  0  0  0
 48 83  1  0  0  0
 49 50  1  0  0  0
 50 51  2  0  0  0
 50 52  1  0  0  0
 50 53  1  0  0  0
M  CHG  3   3  -1  25  -1  52  -1
M  END
> <s_m_source_file>
/cbio/jclab/home/rustenburg/PFK/Epik-Ligands/Results/InProgress/FLAVIN-ADENINE DINUCLEOTIDE/pH_7.0/FLAVIN-ADENINE DINUCLEOTIDE_pH_7.0-before_epik.mol2

> <i_m_source_file_index>
1

> <r_epik_Ionization_Penalty>
  4.1189

> <r_epik_Ionization_Penalty_Charging>
  0.0006

> <r_epik_Ionization_Penalty_Neutral>
  4.1183

> <r_epik_State_Penalty>
  4.0892

> <r_epik_Charging_Adjusted_Penalty>
4.08975687076176

> <i_epik_Tot_Q>
-3

> <i_epik_Tot_abs_Q>
3

> <s_epik_Chemistry_Notes>
This compound contains an acetal/aminal-like group ( X-CH(R)-Y where X, Y are N, S, or O) that may be acid/base labile, releasing an aldehyde.

$$$$
FAD
                    3D
 Structure written by MMmdl.
 85 90  0  0  1  0            999 V2000
   21.8380    0.8050   23.1700 P   0  0  0  0  0  0
   21.3030   -0.5190   22.7220 O   0  0  0  0  0  0
   21.2420    1.9380   22.7450 O   0  5  0  0  0  0
   21.5190    0.6820   24.6440 O   0  0  0  0  0  0
   21.8970    1.6430   25.6850 C   0  0  0  0  0  0
   20.9970    1.3300   26.9450 C   0  0  1  0  0  0
   21.4600    2.2240   28.0530 O   0  0  0  0  0  0
   19.4600    1.6220   26.8060 C   0  0  1  0  0  0
   18.6710    0.5790   27.2900 O   0  0  0  0  0  0
   19.2980    2.9730   27.5740 C   0  0  1  0  0  0
   18.0040    3.1220   28.1030 O   0  0  0  0  0  0
   20.2760    2.7830   28.6990 C   0  0  2  0  0  0
   20.8010    4.0200   29.2670 N   0  0  0  0  0  0
   21.1540    5.1530   28.5750 C   0  0  0  0  0  0
   21.6680    6.0970   29.3600 N   0  0  0  0  0  0
   21.5630    5.5850   30.6310 C   0  0  0  0  0  0
   21.9270    6.1470   31.9320 C   0  0  0  0  0  0
   22.3520    7.3730   32.0980 N   0  0  0  0  0  0
   21.5850    5.3620   32.9970 N   0  0  0  0  0  0
   21.0280    4.1270   32.8470 C   0  0  0  0  0  0
   20.7580    3.4920   31.6950 N   0  0  0  0  0  0
   21.0940    4.2440   30.6070 C   0  0  0  0  0  0
   21.1130   -2.2310   14.3340 N   0  0  0  0  0  0
   21.3700   -3.3170   13.6190 C   0  0  0  0  0  0
   22.4720   -3.7950   13.5580 O   0  0  0  0  0  0
   20.3350   -4.0620   12.9920 N   0  0  0  0  0  0
   19.0640   -3.5450   12.8700 C   0  0  0  0  0  0
   18.2010   -4.1990   12.3240 O   0  0  0  0  0  0
   18.8420   -2.2200   13.4310 C   0  0  0  0  0  0
   17.6210   -1.6430   13.3240 N   0  0  0  0  0  0
   17.4010   -0.5070   14.0540 C   0  0  0  0  0  0
   16.0920    0.0300   14.0340 C   0  0  0  0  0  0
   15.7290    1.0490   14.8790 C   0  0  0  0  0  0
   14.3190    1.5870   14.8590 C   0  0  0  0  0  0
   16.6660    1.5470   15.8520 C   0  0  0  0  0  0
   16.3340    2.7180   16.7390 C   0  0  0  0  0  0
   17.9420    0.9810   15.9280 C   0  0  0  0  0  0
   18.3310    0.0200   14.9920 C   0  0  0  0  0  0
   19.6330   -0.5660   14.9940 N   0  0  0  0  0  0
   19.8920   -1.6530   14.2710 C   0  0  0  0  0  0
   20.6850    0.0690   15.8130 C   0  0  0  0  0  0
   21.0540   -0.7970   17.0450 C   0  0  2  0  0  0
   19.8580   -1.0730   17.7680 O   0  0  0  0  0  0
   21.9860    0.0460   17.9030 C   0  0  2  0  0  0
   23.1720    0.2940   17.1450 O   0  0  0  0  0  0
   22.3780   -0.7320   19.1670 C   0  0  2  0  0  0
   21.2310   -1.0360   19.9620 O   0  0  0  0  0  0
   23.3750    0.1170   19.9180 C   0  0  0  0  0  0
   23.8840   -0.6520   21.1830 O   0  0  0  0  0  0
   24.5070    0.1030   22.3450 P   0  0  1  0  0  0
   24.9820   -0.9910   23.3090 O   0  0  0  0  0  0
   25.4370    1.0540   21.9500 O   0  0  0  0  0  0
   23.4730    0.8660   23.0320 O   0  0  0  0  0  0
   22.9631    1.5210   25.9270 H   0  0  0  0  0  0
   21.7181    2.6659   25.3221 H   0  0  0  0  0  0
   21.1215    0.2571   27.1533 H   0  0  0  0  0  0
   19.0330    1.6103   25.7923 H   0  0  0  0  0  0
   18.7161   -0.4115   26.8137 H   0  0  0  0  0  0
   19.4002    3.8970   26.9859 H   0  0  0  0  0  0
   17.1481    3.2725   27.4286 H   0  0  0  0  0  0
   19.7898    2.2057   29.4992 H   0  0  0  0  0  0
   21.0350    5.2920   27.4870 H   0  0  0  0  0  0
   22.6212    7.9848   31.2244 H   0  0  0  0  0  0
   22.4402    7.7921   33.1112 H   0  0  0  0  0  0
   20.7640    3.5760   33.7660 H   0  0  0  0  0  0
   20.5432   -5.0668   12.5956 H   0  0  0  0  0  0
   15.3300   -0.3580   13.3370 H   0  0  0  0  0  0
   13.7503    1.0953   14.0560 H   0  0  0  0  0  0
   14.3431    2.6721   14.6799 H   0  0  0  0  0  0
   13.8360    1.3857   15.8266 H   0  0  0  0  0  0
   15.2979    3.0369   16.5527 H   0  0  0  0  0  0
   17.0190    3.5502   16.5193 H   0  0  0  0  0  0
   16.4427    2.4221   17.7929 H   0  0  0  0  0  0
   18.6390    1.2910   16.7230 H   0  0  0  0  0  0
   21.5903    0.2076   15.2038 H   0  0  0  0  0  0
   20.3307    1.0469   16.1710 H   0  0  0  0  0  0
   21.4878   -1.7791   16.8058 H   0  0  0  0  0  0
   19.0616   -1.6741   17.3048 H   0  0  0  0  0  0
   21.5298    1.0156   18.1516 H   0  0  0  0  0  0
   23.1120    0.8433   16.1939 H   0  0  0  0  0  0
   22.7871   -1.7307   18.9541 H   0  0  0  0  0  0
   20.4189   -1.6490   19.5440 H   0  0  0  0  0  0
   24.2294    0.3444   19.2636 H   0  0  0  0  0  0
   22.8943    1.0550   20.2327 H   0  0  0  0  0  0
   26.3384    0.7464   21.3998 H   0  0  0  0  0  0
  1  2  2  0  0  0
  1  3  1  0  0  0
  1  4  1  0  0  0
  1 53  1  0  0  0
  4  5  1  0  0  0
  5  6  1  0  0  0
  5 54  1  0  0  0
  5 55  1  0  0  0
  6  7  1  0  0  0
  6  8  1  0  0  0
  6 56  1  0  0  0
  7 12  1  0  0  0
  8  9  1  0  0  0
  8 10  1  0  0  0
  8 57  1  0  0  0
  9 58  1  0  0  0
 10 11  1  0  0  0
 10 12  1  0  0  0
 10 59  1  0  0  0
 11 60  1  0  0  0
 12 13  1  0  0  0
 12 61  1  0  0  0
 13 14  1  0  0  0
 13 22  1  0  0  0
 14 15  2  0  0  0
 14 62  1  0  0  0
 15 16  1  0  0  0
 16 17  2  0  0  0
 16 22  1  0  0  0
 17 18  1  0  0  0
 17 19  1  0  0  0
 18 63  1  0  0  0
 18 64  1  0  0  0
 19 20  2  0  0  0
 20 21  1  0  0  0
 20 65  1  0  0  0
 21 22  2  0  0  0
 23 24  1  0  0  0
 23 40  2  0  0  0
 24 25  2  0  0  0
 24 26  1  0  0  0
 26 27  1  0  0  0
 26 66  1  0  0  0
 27 28  2  0  0  0
 27 29  1  0  0  0
 29 30  2  0  0  0
 29 40  1  0  0  0
 30 31  1  0  0  0
 31 32  2  0  0  0
 31 38  1  0  0  0
 32 33  1  0  0  0
 32 67  1  0  0  0
 33 34  1  0  0  0
 33 35  2  0  0  0
 34 68  1  0  0  0
 34 69  1  0  0  0
 34 70  1  0  0  0
 35 36  1  0  0  0
 35 37  1  0  0  0
 36 71  1  0  0  0
 36 72  1  0  0  0
 36 73  1  0  0  0
 37 38  2  0  0  0
 37 74  1  0  0  0
 38 39  1  0  0  0
 39 40  1  0  0  0
 39 41  1  0  0  0
 41 42  1  0  0  0
 41 75  1  0  0  0
 41 76  1  0  0  0
 42 43  1  0  0  0
 42 44  1  0  0  0
 42 77  1  0  0  0
 43 78  1  0  0  0
 44 45  1  0  0  0
 44 46  1  0  0  0
 44 79  1  0  0  0
 45 80  1  0  0  0
 46 47  1  0  0  0
 46 48  1  0  0  0
 46 81  1  0  0  0
 47 82  1  0  0  0
 48 49  1  0  0  0
 48 83  1  0  0  0
 48 84  1  0  0  0
 49 50  1  0  0  0
 50 51  2  0  0  0
 50 52  1  0  0  0
 50 53  1  0  0  0
 52 85  1  0  0  0
M  CHG  1   3  -1
M  END
> <s_m_source_file>
/cbio/jclab/home/rustenburg/PFK/Epik-Ligands/Results/InProgress/FLAVIN-ADENINE DINUCLEOTIDE/pH_7.0/FLAVIN-ADENINE DINUCLEOTIDE_pH_7.0-before_epik.mol2

> <i_m_source_file_index>
1

> <r_epik_Ionization_Penalty>
  4.4827

> <r_epik_Ionization_Penalty_Charging>
  0.0007

> <r_epik_Ionization_Penalty_Neutral>
  4.4820

> <r_epik_State_Penalty>
  4.4776

> <r_epik_Charging_Adjusted_Penalty>
4.47829361732099

> <i_epik_Tot_Q>
-1

> <i_epik_Tot_abs_Q>
1

> <s_epik_Chemistry_Notes>
This compound contains an acetal/aminal-like group ( X-CH(R)-Y where X, Y are N, S, or O) that may be acid/base labile, releasing an aldehyde.

$$$$
FAD
                    3D
 Structure written by MMmdl.
 85 90  0  0  1  0            999 V2000
   21.8380    0.8050   23.1700 P   0  0  1  0  0  0
   21.3030   -0.5190   22.7220 O   0  0  0  0  0  0
   21.2420    1.9380   22.7450 O   0  0  0  0  0  0
   21.5190    0.6820   24.6440 O   0  0  0  0  0  0
   21.8970    1.6430   25.6850 C   0  0  0  0  0  0
   20.9970    1.3300   26.9450 C   0  0  1  0  0  0
   21.4600    2.2240   28.0530 O   0  0  0  0  0  0
   19.4600    1.6220   26.8060 C   0  0  1  0  0  0
   18.6710    0.5790   27.2900 O   0  0  0  0  0  0
   19.2980    2.9730   27.5740 C   0  0  1  0  0  0
   18.0040    3.1220   28.1030 O   0  0  0  0  0  0
   20.2760    2.7830   28.6990 C   0  0  2  0  0  0
   20.8010    4.0200   29.2670 N   0  0  0  0  0  0
   21.1540    5.1530   28.5750 C   0  0  0  0  0  0
   21.6680    6.0970   29.3600 N   0  0  0  0  0  0
   21.5630    5.5850   30.6310 C   0  0  0  0  0  0
   21.9270    6.1470   31.9320 C   0  0  0  0  0  0
   22.3520    7.3730   32.0980 N   0  0  0  0  0  0
   21.5850    5.3620   32.9970 N   0  0  0  0  0  0
   21.0280    4.1270   32.8470 C   0  0  0  0  0  0
   20.7580    3.4920   31.6950 N   0  0  0  0  0  0
   21.0940    4.2440   30.6070 C   0  0  0  0  0  0
   21.1130   -2.2310   14.3340 N   0  0  0  0  0  0
   21.3700   -3.3170   13.6190 C   0  0  0  0  0  0
   22.4720   -3.7950   13.5580 O   0  0  0  0  0  0
   20.3350   -4.0620   12.9920 N   0  0  0  0  0  0
   19.0640   -3.5450   12.8700 C   0  0  0  0  0  0
   18.2010   -4.1990   12.3240 O   0  0  0  0  0  0
   18.8420   -2.2200   13.4310 C   0  0  0  0  0  0
   17.6210   -1.6430   13.3240 N   0  0  0  0  0  0
   17.4010   -0.5070   14.0540 C   0  0  0  0  0  0
   16.0920    0.0300   14.0340 C   0  0  0  0  0  0
   15.7290    1.0490   14.8790 C   0  0  0  0  0  0
   14.3190    1.5870   14.8590 C   0  0  0  0  0  0
   16.6660    1.5470   15.8520 C   0  0  0  0  0  0
   16.3340    2.7180   16.7390 C   0  0  0  0  0  0
   17.9420    0.9810   15.9280 C   0  0  0  0  0  0
   18.3310    0.0200   14.9920 C   0  0  0  0  0  0
   19.6330   -0.5660   14.9940 N   0  0  0  0  0  0
   19.8920   -1.6530   14.2710 C   0  0  0  0  0  0
   20.6850    0.0690   15.8130 C   0  0  0  0  0  0
   21.0540   -0.7970   17.0450 C   0  0  2  0  0  0
   19.8580   -1.0730   17.7680 O   0  0  0  0  0  0
   21.9860    0.0460   17.9030 C   0  0  2  0  0  0
   23.1720    0.2940   17.1450 O   0  0  0  0  0  0
   22.3780   -0.7320   19.1670 C   0  0  2  0  0  0
   21.2310   -1.0360   19.9620 O   0  0  0  0  0  0
   23.3750    0.1170   19.9180 C   0  0  0  0  0  0
   23.8840   -0.6520   21.1830 O   0  0  0  0  0  0
   24.5070    0.1030   22.3450 P   0  0  0  0  0  0
   24.9820   -0.9910   23.3090 O   0  0  0  0  0  0
   25.4370    1.0540   21.9500 O   0  5  0  0  0  0
   23.4730    0.8660   23.0320 O   0  0  0  0  0  0
   20.1466    2.0306   22.7825 H   0  0  0  0  0  0
   22.9631    1.5210   25.9270 H   0  0  0  0  0  0
   21.7181    2.6659   25.3221 H   0  0  0  0  0  0
   21.1215    0.2571   27.1533 H   0  0  0  0  0  0
   19.0330    1.6103   25.7923 H   0  0  0  0  0  0
   18.7161   -0.4115   26.8137 H   0  0  0  0  0  0
   19.4002    3.8970   26.9859 H   0  0  0  0  0  0
   17.1481    3.2725   27.4286 H   0  0  0  0  0  0
   19.7898    2.2057   29.4992 H   0  0  0  0  0  0
   21.0350    5.2920   27.4870 H   0  0  0  0  0  0
   22.6212    7.9848   31.2244 H   0  0  0  0  0  0
   22.4402    7.7921   33.1112 H   0  0  0  0  0  0
   20.7640    3.5760   33.7660 H   0  0  0  0  0  0
   20.5432   -5.0668   12.5956 H   0  0  0  0  0  0
   15.3300   -0.3580   13.3370 H   0  0  0  0  0  0
   13.7503    1.0953   14.0560 H   0  0  0  0  0  0
   14.3431    2.6721   14.6799 H   0  0  0  0  0  0
   13.8360    1.3857   15.8266 H   0  0  0  0  0  0
   15.2979    3.0369   16.5527 H   0  0  0  0  0  0
   17.0190    3.5502   16.5193 H   0  0  0  0  0  0
   16.4427    2.4221   17.7929 H   0  0  0  0  0  0
   18.6390    1.2910   16.7230 H   0  0  0  0  0  0
   21.5903    0.2076   15.2038 H   0  0  0  0  0  0
   20.3307    1.0469   16.1710 H   0  0  0  0  0  0
   21.4878   -1.7791   16.8058 H   0  0  0  0  0  0
   19.0616   -1.6741   17.3048 H   0  0  0  0  0  0
   21.5298    1.0156   18.1516 H   0  0  0  0  0  0
   23.1120    0.8433   16.1939 H   0  0  0  0  0  0
   22.7871   -1.7307   18.9541 H   0  0  0  0  0  0
   20.4189   -1.6490   19.5440 H   0  0  0  0  0  0
   24.2294    0.3444   19.2636 H   0  0  0  0  0  0
   22.8943    1.0550   20.2327 H   0  0  0  0  0  0
  1  2  2  0  0  0
  1  3  1  0  0  0
  1  4  1  0  0  0
  1 53  1  0  0  0
  3 54  1  0  0  0
  4  5  1  0  0  0
  5  6  1  0  0  0
  5 55  1  0  0  0
  5 56  1  0  0  0
  6  7  1  0  0  0
  6  8  1  0  0  0
  6 57  1  0  0  0
  7 12  1  0  0  0
  8  9  1  0  0  0
  8 10  1  0  0  0
  8 58  1  0  0  0
  9 59  1  0  0  0
 10 11  1  0  0  0
 10 12  1  0  0  0
 10 60  1  0  0  0
 11 61  1  0  0  0
 12 13  1  0  0  0
 12 62  1  0  0  0
 13 14  1  0  0  0
 13 22  1  0  0  0
 14 15  2  0  0  0
 14 63  1  0  0  0
 15 16  1  0  0  0
 16 17  2  0  0  0
 16 22  1  0  0  0
 17 18  1  0  0  0
 17 19  1  0  0  0
 18 64  1  0  0  0
 18 65  1  0  0  0
 19 20  2  0  0  0
 20 21  1  0  0  0
 20 66  1  0  0  0
 21 22  2  0  0  0
 23 24  1  0  0  0
 23 40  2  0  0  0
 24 25  2  0  0  0
 24 26  1  0  0  0
 26 27  1  0  0  0
 26 67  1  0  0  0
 27 28  2  0  0  0
 27 29  1  0  0  0
 29 30  2  0  0  0
 29 40  1  0  0  0
 30 31  1  0  0  0
 31 32  2  0  0  0
 31 38  1  0  0  0
 32 33  1  0  0  0
 32 68  1  0  0  0
 33 34  1  0  0  0
 33 35  2  0  0  0
 34 69  1  0  0  0
 34 70  1  0  0  0
 34 71  1  0  0  0
 35 36  1  0  0  0
 35 37  1  0  0  0
 36 72  1  0  0  0
 36 73  1  0  0  0
 36 74  1  0  0  0
 37 38  2  0  0  0
 37 75  1  0  0  0
 38 39  1  0  0  0
 39 40  1  0  0  0
 39 41  1  0  0  0
 41 42  1  0  0  0
 41 76  1  0  0  0
 41 77  1  0  0  0
 42 43  1  0  0  0
 42 44  1  0  0  0
 42 78  1  0  0  0
 43 79  1  0  0  0
 44 45  1  0  0  0
 44 46  1  0  0  0
 44 80  1  0  0  0
 45 81  1  0  0  0
 46 47  1  0  0  0
 46 48  1  0  0  0
 46 82  1  0  0  0
 47 83  1  0  0  0
 48 49  1  0  0  0
 48 84  1  0  0  0
 48 85  1  0  0  0
 49 50  1  0  0  0
 50 51  2  0  0  0
 50 52  1  0  0  0
 50 53  1  0  0  0
M  CHG  1  52  -1
M  END
> <s_m_source_file>
/cbio/jclab/home/rustenburg/PFK/Epik-Ligands/Results/InProgress/FLAVIN-ADENINE DINUCLEOTIDE/pH_7.0/FLAVIN-ADENINE DINUCLEOTIDE_pH_7.0-before_epik.mol2

> <i_m_source_file_index>
1

> <r_epik_Ionization_Penalty>
  4.5424

> <r_epik_Ionization_Penalty_Charging>
  0.0007

> <r_epik_Ionization_Penalty_Neutral>
  4.5417

> <r_epik_State_Penalty>
  4.5413

> <r_epik_Charging_Adjusted_Penalty>
4.54196299790747

> <i_epik_Tot_Q>
-1

> <i_epik_Tot_abs_Q>
1

> <s_epik_Chemistry_Notes>
This compound contains an acetal/aminal-like group ( X-CH(R)-Y where X, Y are N, S, or O) that may be acid/base labile, releasing an aldehyde.

$$$$
