ADP
                    3D
 Structure written by MMmdl.
 39 41  0  0  1  0            999 V2000
   44.6690    2.9280   38.5560 P   0  0  0  0  0  0
   46.0210    3.5080   38.3170 O   0  0  0  0  0  0
   43.7090    3.8120   37.9050 O   0  5  0  0  0  0
   44.4590    1.4490   38.3820 O   0  5  0  0  0  0
   43.2300    2.9550   41.1100 P   0  0  0  0  0  0
   41.9750    3.4970   40.5730 O   0  0  0  0  0  0
   42.9620    1.5010   41.4010 O   0  5  0  0  0  0
   44.5220    3.2100   40.2120 O   0  0  0  0  0  0
   43.4620    3.8320   42.4070 O   0  0  0  0  0  0
   43.7350    5.2460   42.3350 C   0  0  0  0  0  0
   43.0950    5.8100   43.6260 C   0  0  1  0  0  0
   43.7640    5.2610   44.7790 O   0  0  0  0  0  0
   43.3370    7.3250   43.6170 C   0  0  1  0  0  0
   42.0560    7.9880   43.5600 O   0  0  0  0  0  0
   43.9460    7.5930   45.0830 C   0  0  1  0  0  0
   43.5540    8.7260   45.8770 O   0  0  0  0  0  0
   43.6130    6.2750   45.8130 C   0  0  2  0  0  0
   44.3750    5.7810   46.9910 N   0  0  0  0  0  0
   45.7110    5.4860   47.0620 C   0  0  0  0  0  0
   46.2020    5.3790   48.2820 N   0  0  0  0  0  0
   45.0670    5.5970   49.0640 C   0  0  0  0  0  0
   44.8830    5.6230   50.4990 C   0  0  0  0  0  0
   45.9120    5.4330   51.3250 N   0  0  0  0  0  0
   43.6260    5.8520   50.8960 N   0  0  0  0  0  0
   42.5900    6.0760   50.0670 C   0  0  0  0  0  0
   42.6750    6.0670   48.7350 N   0  0  0  0  0  0
   43.9510    5.8210   48.3040 C   0  0  0  0  0  0
   44.8225    5.4083   42.3038 H   0  0  0  0  0  0
   43.2759    5.6623   41.4262 H   0  0  0  0  0  0
   42.0346    5.5352   43.7265 H   0  0  0  0  0  0
   43.9002    7.6848   42.7433 H   0  0  0  0  0  0
   41.4519    7.9395   42.6420 H   0  0  0  0  0  0
   44.9867    7.9464   45.0378 H   0  0  0  0  0  0
   43.7218    9.7459   45.5006 H   0  0  0  0  0  0
   42.6269    6.4254   46.2768 H   0  0  0  0  0  0
   46.3580    5.3410   46.1810 H   0  0  0  0  0  0
   46.9174    5.2500   50.9180 H   0  0  0  0  0  0
   45.7556    5.4592   52.4135 H   0  0  0  0  0  0
   41.6010    6.2810   50.5100 H   0  0  0  0  0  0
  1  2  2  0  0  0
  1  3  1  0  0  0
  1  4  1  0  0  0
  1  8  1  0  0  0
  5  6  2  0  0  0
  5  7  1  0  0  0
  5  8  1  0  0  0
  5  9  1  0  0  0
  9 10  1  0  0  0
 10 11  1  0  0  0
 10 28  1  0  0  0
 10 29  1  0  0  0
 11 12  1  0  0  0
 11 13  1  0  0  0
 11 30  1  0  0  0
 12 17  1  0  0  0
 13 14  1  0  0  0
 13 15  1  0  0  0
 13 31  1  0  0  0
 14 32  1  0  0  0
 15 16  1  0  0  0
 15 17  1  0  0  0
 15 33  1  0  0  0
 16 34  1  0  0  0
 17 18  1  0  0  0
 17 35  1  0  0  0
 18 19  1  0  0  0
 18 27  1  0  0  0
 19 20  2  0  0  0
 19 36  1  0  0  0
 20 21  1  0  0  0
 21 22  2  0  0  0
 21 27  1  0  0  0
 22 23  1  0  0  0
 22 24  1  0  0  0
 23 37  1  0  0  0
 23 38  1  0  0  0
 24 25  2  0  0  0
 25 26  1  0  0  0
 25 39  1  0  0  0
 26 27  2  0  0  0
M  CHG  3   3  -1   4  -1   7  -1
M  END
> <s_m_source_file>
/cbio/jclab/home/rustenburg/PFK/Epik-Ligands/Results/InProgress/ADENOSINE-5'-DIPHOSPHATE/pH_10.0/ADENOSINE-5'-DIPHOSPHATE_pH_10.0-before_epik.mol2

> <i_m_source_file_index>
1

> <r_lp_tautomer_probability>
0.999997216410988

> <r_epik_Ionization_Penalty>
  0.0056

> <r_epik_Ionization_Penalty_Charging>
  0.0001

> <r_epik_Ionization_Penalty_Neutral>
  0.0055

> <r_epik_State_Penalty>
  0.0039

> <r_epik_Charging_Adjusted_Penalty>
0.00403920586946805

> <i_epik_Tot_Q>
-3

> <i_epik_Tot_abs_Q>
3

> <s_epik_Chemistry_Notes>
This compound contains an acetal/aminal-like group ( X-CH(R)-Y where X, Y are N, S, or O) that may be acid/base labile, releasing an aldehyde.

$$$$
ADP
                    3D
 Structure written by MMmdl.
 38 40  0  0  1  0            999 V2000
   44.6690    2.9280   38.5560 P   0  0  0  0  0  0
   46.0210    3.5080   38.3170 O   0  0  0  0  0  0
   43.7090    3.8120   37.9050 O   0  5  0  0  0  0
   44.4590    1.4490   38.3820 O   0  5  0  0  0  0
   43.2300    2.9550   41.1100 P   0  0  0  0  0  0
   41.9750    3.4970   40.5730 O   0  0  0  0  0  0
   42.9620    1.5010   41.4010 O   0  5  0  0  0  0
   44.5220    3.2100   40.2120 O   0  0  0  0  0  0
   43.4620    3.8320   42.4070 O   0  0  0  0  0  0
   43.7350    5.2460   42.3350 C   0  0  0  0  0  0
   43.0950    5.8100   43.6260 C   0  0  1  0  0  0
   43.7640    5.2610   44.7790 O   0  0  0  0  0  0
   43.3370    7.3250   43.6170 C   0  0  1  0  0  0
   42.0560    7.9880   43.5600 O   0  0  0  0  0  0
   43.9460    7.5930   45.0830 C   0  0  1  0  0  0
   43.5540    8.7260   45.8770 O   0  5  0  0  0  0
   43.6130    6.2750   45.8130 C   0  0  2  0  0  0
   44.3750    5.7810   46.9910 N   0  0  0  0  0  0
   45.7110    5.4860   47.0620 C   0  0  0  0  0  0
   46.2020    5.3790   48.2820 N   0  0  0  0  0  0
   45.0670    5.5970   49.0640 C   0  0  0  0  0  0
   44.8830    5.6230   50.4990 C   0  0  0  0  0  0
   45.9120    5.4330   51.3250 N   0  0  0  0  0  0
   43.6260    5.8520   50.8960 N   0  0  0  0  0  0
   42.5900    6.0760   50.0670 C   0  0  0  0  0  0
   42.6750    6.0670   48.7350 N   0  0  0  0  0  0
   43.9510    5.8210   48.3040 C   0  0  0  0  0  0
   44.8225    5.4083   42.3038 H   0  0  0  0  0  0
   43.2759    5.6623   41.4262 H   0  0  0  0  0  0
   42.0346    5.5352   43.7265 H   0  0  0  0  0  0
   43.9002    7.6848   42.7433 H   0  0  0  0  0  0
   41.4519    7.9395   42.6420 H   0  0  0  0  0  0
   44.9867    7.9464   45.0378 H   0  0  0  0  0  0
   42.6269    6.4254   46.2768 H   0  0  0  0  0  0
   46.3580    5.3410   46.1810 H   0  0  0  0  0  0
   46.9174    5.2500   50.9180 H   0  0  0  0  0  0
   45.7556    5.4592   52.4135 H   0  0  0  0  0  0
   41.6010    6.2810   50.5100 H   0  0  0  0  0  0
  1  2  2  0  0  0
  1  3  1  0  0  0
  1  4  1  0  0  0
  1  8  1  0  0  0
  5  6  2  0  0  0
  5  7  1  0  0  0
  5  8  1  0  0  0
  5  9  1  0  0  0
  9 10  1  0  0  0
 10 11  1  0  0  0
 10 28  1  0  0  0
 10 29  1  0  0  0
 11 12  1  0  0  0
 11 13  1  0  0  0
 11 30  1  0  0  0
 12 17  1  0  0  0
 13 14  1  0  0  0
 13 15  1  0  0  0
 13 31  1  0  0  0
 14 32  1  0  0  0
 15 16  1  0  0  0
 15 17  1  0  0  0
 15 33  1  0  0  0
 17 18  1  0  0  0
 17 34  1  0  0  0
 18 19  1  0  0  0
 18 27  1  0  0  0
 19 20  2  0  0  0
 19 35  1  0  0  0
 20 21  1  0  0  0
 21 22  2  0  0  0
 21 27  1  0  0  0
 22 23  1  0  0  0
 22 24  1  0  0  0
 23 36  1  0  0  0
 23 37  1  0  0  0
 24 25  2  0  0  0
 25 26  1  0  0  0
 25 38  1  0  0  0
 26 27  2  0  0  0
M  CHG  4   3  -1   4  -1   7  -1  16  -1
M  END
> <s_m_source_file>
/cbio/jclab/home/rustenburg/PFK/Epik-Ligands/Results/InProgress/ADENOSINE-5'-DIPHOSPHATE/pH_10.0/ADENOSINE-5'-DIPHOSPHATE_pH_10.0-before_epik.mol2

> <i_m_source_file_index>
1

> <r_lp_tautomer_probability>
0.999997216410988

> <r_epik_Ionization_Penalty>
  3.0464

> <r_epik_Ionization_Penalty_Charging>
  3.0460

> <r_epik_Ionization_Penalty_Neutral>
  0.0005

> <r_epik_State_Penalty>
  3.2208

> <r_epik_Charging_Adjusted_Penalty>
6.26676557557644

> <i_epik_Tot_Q>
-4

> <i_epik_Tot_abs_Q>
4

> <s_epik_Chemistry_Notes>
This compound contains an acetal/aminal-like group ( X-CH(R)-Y where X, Y are N, S, or O) that may be acid/base labile, releasing an aldehyde.

$$$$
ADP
                    3D
 Structure written by MMmdl.
 38 40  0  0  1  0            999 V2000
   44.6690    2.9280   38.5560 P   0  0  0  0  0  0
   46.0210    3.5080   38.3170 O   0  0  0  0  0  0
   43.7090    3.8120   37.9050 O   0  5  0  0  0  0
   44.4590    1.4490   38.3820 O   0  5  0  0  0  0
   43.2300    2.9550   41.1100 P   0  0  0  0  0  0
   41.9750    3.4970   40.5730 O   0  0  0  0  0  0
   42.9620    1.5010   41.4010 O   0  5  0  0  0  0
   44.5220    3.2100   40.2120 O   0  0  0  0  0  0
   43.4620    3.8320   42.4070 O   0  0  0  0  0  0
   43.7350    5.2460   42.3350 C   0  0  0  0  0  0
   43.0950    5.8100   43.6260 C   0  0  1  0  0  0
   43.7640    5.2610   44.7790 O   0  0  0  0  0  0
   43.3370    7.3250   43.6170 C   0  0  1  0  0  0
   42.0560    7.9880   43.5600 O   0  5  0  0  0  0
   43.9460    7.5930   45.0830 C   0  0  1  0  0  0
   43.5540    8.7260   45.8770 O   0  0  0  0  0  0
   43.6130    6.2750   45.8130 C   0  0  2  0  0  0
   44.3750    5.7810   46.9910 N   0  0  0  0  0  0
   45.7110    5.4860   47.0620 C   0  0  0  0  0  0
   46.2020    5.3790   48.2820 N   0  0  0  0  0  0
   45.0670    5.5970   49.0640 C   0  0  0  0  0  0
   44.8830    5.6230   50.4990 C   0  0  0  0  0  0
   45.9120    5.4330   51.3250 N   0  0  0  0  0  0
   43.6260    5.8520   50.8960 N   0  0  0  0  0  0
   42.5900    6.0760   50.0670 C   0  0  0  0  0  0
   42.6750    6.0670   48.7350 N   0  0  0  0  0  0
   43.9510    5.8210   48.3040 C   0  0  0  0  0  0
   44.8225    5.4083   42.3038 H   0  0  0  0  0  0
   43.2759    5.6623   41.4262 H   0  0  0  0  0  0
   42.0346    5.5352   43.7265 H   0  0  0  0  0  0
   43.9002    7.6848   42.7433 H   0  0  0  0  0  0
   44.9867    7.9464   45.0378 H   0  0  0  0  0  0
   43.7218    9.7459   45.5006 H   0  0  0  0  0  0
   42.6269    6.4254   46.2768 H   0  0  0  0  0  0
   46.3580    5.3410   46.1810 H   0  0  0  0  0  0
   46.9174    5.2500   50.9180 H   0  0  0  0  0  0
   45.7556    5.4592   52.4135 H   0  0  0  0  0  0
   41.6010    6.2810   50.5100 H   0  0  0  0  0  0
  1  2  2  0  0  0
  1  3  1  0  0  0
  1  4  1  0  0  0
  1  8  1  0  0  0
  5  6  2  0  0  0
  5  7  1  0  0  0
  5  8  1  0  0  0
  5  9  1  0  0  0
  9 10  1  0  0  0
 10 11  1  0  0  0
 10 28  1  0  0  0
 10 29  1  0  0  0
 11 12  1  0  0  0
 11 13  1  0  0  0
 11 30  1  0  0  0
 12 17  1  0  0  0
 13 14  1  0  0  0
 13 15  1  0  0  0
 13 31  1  0  0  0
 15 16  1  0  0  0
 15 17  1  0  0  0
 15 32  1  0  0  0
 16 33  1  0  0  0
 17 18  1  0  0  0
 17 34  1  0  0  0
 18 19  1  0  0  0
 18 27  1  0  0  0
 19 20  2  0  0  0
 19 35  1  0  0  0
 20 21  1  0  0  0
 21 22  2  0  0  0
 21 27  1  0  0  0
 22 23  1  0  0  0
 22 24  1  0  0  0
 23 36  1  0  0  0
 23 37  1  0  0  0
 24 25  2  0  0  0
 25 26  1  0  0  0
 25 38  1  0  0  0
 26 27  2  0  0  0
M  CHG  4   3  -1   4  -1   7  -1  14  -1
M  END
> <s_m_source_file>
/cbio/jclab/home/rustenburg/PFK/Epik-Ligands/Results/InProgress/ADENOSINE-5'-DIPHOSPHATE/pH_10.0/ADENOSINE-5'-DIPHOSPHATE_pH_10.0-before_epik.mol2

> <i_m_source_file_index>
1

> <r_epik_Ionization_Penalty>
  3.5795

> <r_epik_Ionization_Penalty_Charging>
  3.5789

> <r_epik_Ionization_Penalty_Neutral>
  0.0006

> <r_epik_State_Penalty>
  3.8285

> <r_epik_Charging_Adjusted_Penalty>
7.40746145113998

> <i_epik_Tot_Q>
-4

> <i_epik_Tot_abs_Q>
4

> <s_epik_Chemistry_Notes>
This compound contains an acetal/aminal-like group ( X-CH(R)-Y where X, Y are N, S, or O) that may be acid/base labile, releasing an aldehyde.

$$$$
ADP
                    3D
 Structure written by MMmdl.
 38 40  0  0  1  0            999 V2000
   44.6690    2.9280   38.5560 P   0  0  0  0  0  0
   46.0210    3.5080   38.3170 O   0  0  0  0  0  0
   43.7090    3.8120   37.9050 O   0  5  0  0  0  0
   44.4590    1.4490   38.3820 O   0  5  0  0  0  0
   43.2300    2.9550   41.1100 P   0  0  0  0  0  0
   41.9750    3.4970   40.5730 O   0  0  0  0  0  0
   42.9620    1.5010   41.4010 O   0  5  0  0  0  0
   44.5220    3.2100   40.2120 O   0  0  0  0  0  0
   43.4620    3.8320   42.4070 O   0  0  0  0  0  0
   43.7350    5.2460   42.3350 C   0  0  0  0  0  0
   43.0950    5.8100   43.6260 C   0  0  1  0  0  0
   43.7640    5.2610   44.7790 O   0  0  0  0  0  0
   43.3370    7.3250   43.6170 C   0  0  1  0  0  0
   42.0560    7.9880   43.5600 O   0  0  0  0  0  0
   43.9460    7.5930   45.0830 C   0  0  1  0  0  0
   43.5540    8.7260   45.8770 O   0  0  0  0  0  0
   43.6130    6.2750   45.8130 C   0  0  2  0  0  0
   44.3750    5.7810   46.9910 N   0  0  0  0  0  0
   45.7110    5.4860   47.0620 C   0  0  0  0  0  0
   46.2020    5.3790   48.2820 N   0  0  0  0  0  0
   45.0670    5.5970   49.0640 C   0  0  0  0  0  0
   44.8830    5.6230   50.4990 C   0  0  0  0  0  0
   45.9120    5.4330   51.3250 N   0  5  0  0  0  0
   43.6260    5.8520   50.8960 N   0  0  0  0  0  0
   42.5900    6.0760   50.0670 C   0  0  0  0  0  0
   42.6750    6.0670   48.7350 N   0  0  0  0  0  0
   43.9510    5.8210   48.3040 C   0  0  0  0  0  0
   44.8225    5.4083   42.3038 H   0  0  0  0  0  0
   43.2759    5.6623   41.4262 H   0  0  0  0  0  0
   42.0346    5.5352   43.7265 H   0  0  0  0  0  0
   43.9002    7.6848   42.7433 H   0  0  0  0  0  0
   41.4519    7.9395   42.6420 H   0  0  0  0  0  0
   44.9867    7.9464   45.0378 H   0  0  0  0  0  0
   43.7218    9.7459   45.5006 H   0  0  0  0  0  0
   42.6269    6.4254   46.2768 H   0  0  0  0  0  0
   46.3580    5.3410   46.1810 H   0  0  0  0  0  0
   46.9174    5.2500   50.9180 H   0  0  0  0  0  0
   41.6010    6.2810   50.5100 H   0  0  0  0  0  0
  1  2  2  0  0  0
  1  3  1  0  0  0
  1  4  1  0  0  0
  1  8  1  0  0  0
  5  6  2  0  0  0
  5  7  1  0  0  0
  5  8  1  0  0  0
  5  9  1  0  0  0
  9 10  1  0  0  0
 10 11  1  0  0  0
 10 28  1  0  0  0
 10 29  1  0  0  0
 11 12  1  0  0  0
 11 13  1  0  0  0
 11 30  1  0  0  0
 12 17  1  0  0  0
 13 14  1  0  0  0
 13 15  1  0  0  0
 13 31  1  0  0  0
 14 32  1  0  0  0
 15 16  1  0  0  0
 15 17  1  0  0  0
 15 33  1  0  0  0
 16 34  1  0  0  0
 17 18  1  0  0  0
 17 35  1  0  0  0
 18 19  1  0  0  0
 18 27  1  0  0  0
 19 20  2  0  0  0
 19 36  1  0  0  0
 20 21  1  0  0  0
 21 22  2  0  0  0
 21 27  1  0  0  0
 22 23  1  0  0  0
 22 24  1  0  0  0
 23 37  1  0  0  0
 24 25  2  0  0  0
 25 26  1  0  0  0
 25 38  1  0  0  0
 26 27  2  0  0  0
M  CHG  4   3  -1   4  -1   7  -1  23  -1
M  END
> <s_m_source_file>
/cbio/jclab/home/rustenburg/PFK/Epik-Ligands/Results/InProgress/ADENOSINE-5'-DIPHOSPHATE/pH_10.0/ADENOSINE-5'-DIPHOSPHATE_pH_10.0-before_epik.mol2

> <i_m_source_file_index>
1

> <r_epik_Ionization_Penalty>
  4.1204

> <r_epik_Ionization_Penalty_Charging>
  4.1154

> <r_epik_Ionization_Penalty_Neutral>
  0.0050

> <r_epik_State_Penalty>
  4.4170

> <r_epik_Charging_Adjusted_Penalty>
8.5324819452219

> <i_epik_Tot_Q>
-4

> <i_epik_Tot_abs_Q>
4

> <s_epik_Chemistry_Notes>
This compound contains an acetal/aminal-like group ( X-CH(R)-Y where X, Y are N, S, or O) that may be acid/base labile, releasing an aldehyde.

$$$$
ADP
                    3D
 Structure written by MMmdl.
 40 42  0  0  1  0            999 V2000
   44.6690    2.9280   38.5560 P   0  0  0  0  0  0
   46.0210    3.5080   38.3170 O   0  0  0  0  0  0
   43.7090    3.8120   37.9050 O   0  5  0  0  0  0
   44.4590    1.4490   38.3820 O   0  0  0  0  0  0
   43.2300    2.9550   41.1100 P   0  0  0  0  0  0
   41.9750    3.4970   40.5730 O   0  0  0  0  0  0
   42.9620    1.5010   41.4010 O   0  5  0  0  0  0
   44.5220    3.2100   40.2120 O   0  0  0  0  0  0
   43.4620    3.8320   42.4070 O   0  0  0  0  0  0
   43.7350    5.2460   42.3350 C   0  0  0  0  0  0
   43.0950    5.8100   43.6260 C   0  0  1  0  0  0
   43.7640    5.2610   44.7790 O   0  0  0  0  0  0
   43.3370    7.3250   43.6170 C   0  0  1  0  0  0
   42.0560    7.9880   43.5600 O   0  0  0  0  0  0
   43.9460    7.5930   45.0830 C   0  0  1  0  0  0
   43.5540    8.7260   45.8770 O   0  0  0  0  0  0
   43.6130    6.2750   45.8130 C   0  0  2  0  0  0
   44.3750    5.7810   46.9910 N   0  0  0  0  0  0
   45.7110    5.4860   47.0620 C   0  0  0  0  0  0
   46.2020    5.3790   48.2820 N   0  0  0  0  0  0
   45.0670    5.5970   49.0640 C   0  0  0  0  0  0
   44.8830    5.6230   50.4990 C   0  0  0  0  0  0
   45.9120    5.4330   51.3250 N   0  0  0  0  0  0
   43.6260    5.8520   50.8960 N   0  0  0  0  0  0
   42.5900    6.0760   50.0670 C   0  0  0  0  0  0
   42.6750    6.0670   48.7350 N   0  0  0  0  0  0
   43.9510    5.8210   48.3040 C   0  0  0  0  0  0
   44.5050    1.0013   37.3783 H   0  0  0  0  0  0
   44.8225    5.4083   42.3038 H   0  0  0  0  0  0
   43.2759    5.6623   41.4262 H   0  0  0  0  0  0
   42.0346    5.5352   43.7265 H   0  0  0  0  0  0
   43.9002    7.6848   42.7433 H   0  0  0  0  0  0
   41.4519    7.9395   42.6420 H   0  0  0  0  0  0
   44.9867    7.9464   45.0378 H   0  0  0  0  0  0
   43.7218    9.7459   45.5006 H   0  0  0  0  0  0
   42.6269    6.4254   46.2768 H   0  0  0  0  0  0
   46.3580    5.3410   46.1810 H   0  0  0  0  0  0
   46.9174    5.2500   50.9180 H   0  0  0  0  0  0
   45.7556    5.4592   52.4135 H   0  0  0  0  0  0
   41.6010    6.2810   50.5100 H   0  0  0  0  0  0
  1  2  2  0  0  0
  1  3  1  0  0  0
  1  4  1  0  0  0
  1  8  1  0  0  0
  4 28  1  0  0  0
  5  6  2  0  0  0
  5  7  1  0  0  0
  5  8  1  0  0  0
  5  9  1  0  0  0
  9 10  1  0  0  0
 10 11  1  0  0  0
 10 29  1  0  0  0
 10 30  1  0  0  0
 11 12  1  0  0  0
 11 13  1  0  0  0
 11 31  1  0  0  0
 12 17  1  0  0  0
 13 14  1  0  0  0
 13 15  1  0  0  0
 13 32  1  0  0  0
 14 33  1  0  0  0
 15 16  1  0  0  0
 15 17  1  0  0  0
 15 34  1  0  0  0
 16 35  1  0  0  0
 17 18  1  0  0  0
 17 36  1  0  0  0
 18 19  1  0  0  0
 18 27  1  0  0  0
 19 20  2  0  0  0
 19 37  1  0  0  0
 20 21  1  0  0  0
 21 22  2  0  0  0
 21 27  1  0  0  0
 22 23  1  0  0  0
 22 24  1  0  0  0
 23 38  1  0  0  0
 23 39  1  0  0  0
 24 25  2  0  0  0
 25 26  1  0  0  0
 25 40  1  0  0  0
 26 27  2  0  0  0
M  CHG  2   3  -1   7  -1
M  END
> <s_m_source_file>
/cbio/jclab/home/rustenburg/PFK/Epik-Ligands/Results/InProgress/ADENOSINE-5'-DIPHOSPHATE/pH_10.0/ADENOSINE-5'-DIPHOSPHATE_pH_10.0-before_epik.mol2

> <i_m_source_file_index>
1

> <r_lp_tautomer_probability>
0.999997216410988

> <r_epik_Ionization_Penalty>
  5.0877

> <r_epik_Ionization_Penalty_Charging>
  0.0000

> <r_epik_Ionization_Penalty_Neutral>
  5.0877

> <r_epik_State_Penalty>
  5.4269

> <r_epik_Charging_Adjusted_Penalty>
5.42692947136727

> <i_epik_Tot_Q>
-2

> <i_epik_Tot_abs_Q>
2

> <s_epik_Chemistry_Notes>
This compound contains an acetal/aminal-like group ( X-CH(R)-Y where X, Y are N, S, or O) that may be acid/base labile, releasing an aldehyde.

$$$$
