@<TRIPOS>MOLECULE
ATP
   47    49     1     0     0
SMALL
NO_CHARGES

@<TRIPOS>ATOM
      1  PG        46.1070   45.1820   56.9500 P.3       1 ATP         0.0000
      2  O1G       45.7790   46.3300   56.0520 O.2       1 ATP         0.0000
      3  O2G       47.3820   44.4970   56.6260 O.3       1 ATP         0.0000
      4  O3G       45.9720   45.5300   58.3750 O.3       1 ATP         0.0000
      5  PB        43.9110   43.7400   55.6550 P.3       1 ATP         0.0000
      6  O1B       42.9750   42.7220   55.9860 O.2       1 ATP         0.0000
      7  O2B       43.6030   44.7670   54.6780 O.3       1 ATP         0.0000
      8  O3B       45.0410   44.0150   56.7380 O.3       1 ATP         0.0000
      9  PA        45.2280   42.6690   53.2570 P.3       1 ATP         0.0000
     10  O1A       46.3800   43.3960   52.7880 O.2       1 ATP         0.0000
     11  O2A       44.1830   42.1900   52.3510 O.3       1 ATP         0.0000
     12  O3A       44.9170   42.7160   54.7890 O.3       1 ATP         0.0000
     13  O5'       46.1720   41.5680   53.3020 O.3       1 ATP         0.0000
     14  C5'       46.6090   40.4220   53.5420 C.3       1 ATP         0.0000
     15  C4'       46.5200   38.9890   53.3640 C.3       1 ATP         0.0000
     16  O4'       46.7850   38.9080   51.9480 O.3       1 ATP         0.0000
     17  C3'       47.8080   38.8740   54.1120 C.3       1 ATP         0.0000
     18  O3'       47.7130   38.3570   55.4230 O.3       1 ATP         0.0000
     19  C2'       48.7190   38.1160   53.1390 C.3       1 ATP         0.0000
     20  O2'       48.6320   36.7370   53.4250 O.3       1 ATP         0.0000
     21  C1'       48.1330   38.4090   51.7210 C.3       1 ATP         0.0000
     22  N9        48.8460   39.4640   50.9860 N.pl3     1 ATP         0.0000
     23  C8        48.6160   40.8420   50.9450 C.ar      1 ATP         0.0000
     24  N7        49.4250   41.4890   50.1650 N.ar      1 ATP         0.0000
     25  C5        50.2320   40.4700   49.6640 C.ar      1 ATP         0.0000
     26  C6        51.3080   40.4660   48.7310 C.ar      1 ATP         0.0000
     27  N6        51.7210   41.5680   48.1290 N.pl3     1 ATP         0.0000
     28  N1        51.9120   39.2740   48.4470 N.ar      1 ATP         0.0000
     29  C2        51.4930   38.1510   49.0290 C.ar      1 ATP         0.0000
     30  N3        50.4910   38.0160   49.9000 N.ar      1 ATP         0.0000
     31  C4        49.8920   39.2530   50.1710 C.ar      1 ATP         0.0000
     32 HOG2       47.5900   43.7670   57.1970 H         1 ATP         0.0000
     33 HOG3       46.1800   44.8000   58.9460 H         1 ATP         0.0000
     34 HOB2       44.2280   45.4470   54.4560 H         1 ATP         0.0000
     35 HOA2       43.4230   41.7100   52.6600 H         1 ATP         0.0000
     36 H5'1       47.6660   40.5700   53.2210 H         1 ATP         0.0000
     37 H5'2       46.5870   40.4590   54.6560 H         1 ATP         0.0000
     38  H4'       45.6650   38.3270   53.6390 H         1 ATP         0.0000
     39  H3'       48.2340   39.8700   54.3750 H         1 ATP         0.0000
     40 HO3'       48.5320   38.2830   55.8980 H         1 ATP         0.0000
     41  H2'       49.7880   38.4220   53.2120 H         1 ATP         0.0000
     42 HO2'       49.1960   36.2670   52.8220 H         1 ATP         0.0000
     43  H1'       48.2030   37.4740   51.1170 H         1 ATP         0.0000
     44  H8        47.8360   41.3900   51.4990 H         1 ATP         0.0000
     45 HN61       52.4910   41.5650   47.4600 H         1 ATP         0.0000
     46 HN62       51.9400   42.2520   48.8520 H         1 ATP         0.0000
     47  H2        52.0360   37.2290   48.7590 H         1 ATP         0.0000
@<TRIPOS>BOND
     1    1    2 2
     2    1    3 1
     3    1    4 1
     4    1    8 1
     5    3   32 1
     6    4   33 1
     7    5    6 2
     8    5    7 1
     9    5    8 1
    10    5   12 1
    11    7   34 1
    12    9   10 2
    13    9   11 1
    14    9   12 1
    15    9   13 1
    16   11   35 1
    17   13   14 1
    18   14   15 1
    19   14   36 1
    20   14   37 1
    21   15   16 1
    22   15   17 1
    23   15   38 1
    24   16   21 1
    25   17   18 1
    26   17   19 1
    27   17   39 1
    28   18   40 1
    29   19   20 1
    30   19   21 1
    31   19   41 1
    32   20   42 1
    33   21   22 1
    34   21   43 1
    35   22   23 ar
    36   22   31 ar
    37   23   24 ar
    38   23   44 1
    39   24   25 ar
    40   25   26 ar
    41   25   31 ar
    42   26   27 1
    43   26   28 ar
    44   27   45 1
    45   27   46 1
    46   28   29 ar
    47   29   30 ar
    48   29   47 1
    49   30   31 ar
@<TRIPOS>SUBSTRUCTURE
     1 ATP         1 GROUP 0 A     ****
