ACE
                    3D
 Structure written by MMmdl.
  7  6  0  0  1  0            999 V2000
    0.7720  -10.0720    6.5780 C   0  0  0  0  0  0
    1.9730  -10.2230    6.8620 O   0  0  0  0  0  0
   -0.3220  -10.6770    7.4050 C   0  0  0  0  0  0
    0.4855   -9.4795    5.6966 H   0  0  0  0  0  0
   -1.2979  -10.4149    6.9703 H   0  0  0  0  0  0
   -0.2621  -10.2890    8.4326 H   0  0  0  0  0  0
   -0.2088  -11.7711    7.4189 H   0  0  0  0  0  0
  1  2  2  0  0  0
  1  3  1  0  0  0
  1  4  1  0  0  0
  3  5  1  0  0  0
  3  6  1  0  0  0
  3  7  1  0  0  0
M  END
> <s_m_source_file>
/cbio/jclab/home/rustenburg/PFK/Epik-Ligands/Results/InProgress/ACETYL GROUP/pH_4.0/ACETYL GROUP_pH_4.0-before_epik.mol2

> <i_m_source_file_index>
1

> <r_lp_tautomer_probability>
1

> <r_epik_Ionization_Penalty>
  0.0000

> <r_epik_Ionization_Penalty_Charging>
  0.0000

> <r_epik_Ionization_Penalty_Neutral>
  0.0000

> <r_epik_State_Penalty>
 -0.0000

> <r_epik_Charging_Adjusted_Penalty>
0

> <i_epik_Tot_Q>
0

> <i_epik_Tot_abs_Q>
0

$$$$
