ACE
  CCTOOLS-0326171057

  7  6  0  0  0  0  0  0  0  0999 V2000
    0.7720  -10.0720    6.5780 C   0  0  0  0  0
    1.9730  -10.2230    6.8620 O   0  0  0  0  0
   -0.3220  -10.6770    7.4050 C   0  0  0  0  0
    0.6850   -9.4530    5.6690 H   0  0  0  0  0
   -1.1910  -10.4440    7.0180 H   0  0  0  0  0
   -0.2690  -10.3310    8.3200 H   0  0  0  0  0
   -0.2210  -11.6520    7.4180 H   0  0  0  0  0
  1  2  2  0  0  0
  1  3  1  0  0  0
  1  4  1  0  0  0
  3  5  1  0  0  0
  3  6  1  0  0  0
  3  7  1  0  0  0
M  END
$$$$
