@<TRIPOS>MOLECULE
NAP
73   77    1
SMALL
USER_CHARGES


@<TRIPOS>ATOM
      1 PA         17.1740   26.1340   12.0400 P.3       1 NAP         0.0000 
      2 O1A        16.0480   25.3140   12.5000 O.co2     1 NAP         0.0000 
      3 O2A        18.4780   26.1140   12.6700 O.co2     1 NAP         0.0000 
      4 O5B        17.3170   25.8890   10.4370 O.3       1 NAP         0.0000 
      5 C5B        17.8130   26.9900    9.4950 C.3       1 NAP         0.0000 
      6 C4B        17.9620   26.1550    8.3450 C.3       1 NAP         0.0000 
      7 O4B        17.8590   27.3510    7.2940 O.3       1 NAP         0.0000 
      8 C3B        18.8400   25.7890    7.5350 C.3       1 NAP         0.0000 
      9 O3B        18.2080   24.5970    7.8390 O.3       1 NAP         0.0000 
     10 C2B        19.2760   25.7510    6.1470 C.3       1 NAP         0.0000 
     11 O2B        18.8830   24.7390    5.4810 O.3       1 NAP         0.0000 
     12 C1B        18.3940   26.8940    5.9880 C.3       1 NAP         0.0000 
     13 N9A        19.2370   28.0900    5.5900 N.pl3     1 NAP         0.0000 
     14 C8A        20.4660   28.6370    6.0110 C.ar      1 NAP         0.0000 
     15 N7A        20.9350   29.5480    5.1920 N.2       1 NAP         0.0000 
     16 C5A        20.0030   29.6240    4.1730 C.ar      1 NAP         0.0000 
     17 C6A        19.9350   30.4020    2.9750 C.ar      1 NAP         0.0000 
     18 N6A        20.8890   31.2620    2.6350 N.pl3     1 NAP         0.0000 
     19 N1A        18.8410   30.2300    2.1530 N.ar      1 NAP         0.0000 
     20 C2A        17.8670   29.3500    2.4800 C.ar      1 NAP         0.0000 
     21 N3A        17.8590   28.5740    3.5790 N.ar      1 NAP         0.0000 
     22 C4A        18.9620   28.7580    4.3950 C.ar      1 NAP         0.0000 
     23 O3         16.4580   27.5660   12.2080 O.3       1 NAP         0.0000 
     24 PN         15.2160   28.0680   13.1530 P.3       1 NAP         0.0000 
     25 O1N        13.9830   27.4170   12.6420 O.2       1 NAP         0.0000 
     26 O2N        15.3080   29.5540   13.0930 O.3       1 NAP         0.0000 
     27 O5D        15.4870   27.6580   14.6850 O.3       1 NAP         0.0000 
     28 C5D        16.5990   28.1690   15.4750 C.3       1 NAP         0.0000 
     29 C4D        17.3950   26.9680   16.0250 C.3       1 NAP         0.0000 
     30 O4D        18.6530   27.3660   16.6140 O.3       1 NAP         0.0000 
     31 C3D        16.6940   26.1930   17.1670 C.3       1 NAP         0.0000 
     32 O3D        17.0850   24.8060   17.2870 O.3       1 NAP         0.0000 
     33 C2D        17.0930   26.9360   18.3930 C.3       1 NAP         0.0000 
     34 O2D        16.9790   26.2050   19.5880 O.3       1 NAP         0.0000 
     35 C1D        18.5690   27.2430   18.0380 C.3       1 NAP         0.0000 
     36 N1N        19.1250   28.3610   18.8110 N.pl3     1 NAP         0.0000 
     37 C2N        18.5550   29.6410   18.6670 C.2       1 NAP         0.0000 
     38 C3N        19.1410   30.6830   19.4650 C.2       1 NAP         0.0000 
     39 C7N        18.6520   32.0500   19.4140 C.2       1 NAP         0.0000 
     40 O7N        19.1610   32.9430   20.1020 O.2       1 NAP         0.0000 
     41 N7N        17.6220   32.3900   18.6160 N.am      1 NAP         0.0000 
     42 C4N        20.2220   30.3760   20.3170 C.3       1 NAP         0.0000 
     43 C5N        20.7460   29.1390   20.4350 C.2       1 NAP         0.0000 
     44 C6N        20.2020   28.1290   19.6810 C.2       1 NAP         0.0000 
     45 P2B        19.6640   24.5550    4.0970 P.3       1 NAP         0.0000 
     46 O1X        21.1170   24.3600    4.4040 O.co2     1 NAP         0.0000 
     47 O2X        18.9640   23.4100    3.5430 O.co2     1 NAP         0.0000 
     48 O3X        19.3910   25.7980    3.3810 O.co2     1 NAP         0.0000 
     49 H51A       17.0483   27.7767    9.4157 H         1 NAP         0.0000 
     50 H52A       18.7432   27.4217    9.8931 H         1 NAP         0.0000 
     51 H4B        17.6025   25.1989    8.7533 H         1 NAP         0.0000 
     52 H3B        19.6806   26.4653    7.7495 H         1 NAP         0.0000 
     53 HO3A       17.8041   24.4305    8.8485 H         1 NAP         0.0000 
     54 H2B        20.3163   25.6482    5.8047 H         1 NAP         0.0000 
     55 H1B        17.6138   26.5596    5.2884 H         1 NAP         0.0000 
     56 H8A        21.0250   28.3690    6.9230 H         1 NAP         0.0000 
     57 H61A       21.7626   31.4011    3.2888 H         1 NAP         0.0000 
     58 H62A       20.8052   31.8349    1.6997 H         1 NAP         0.0000 
     59 H2A        17.0080   29.2570    1.7930 H         1 NAP         0.0000 
     60 H51N       17.2459   28.7905   14.8384 H         1 NAP         0.0000 
     61 H52N       16.2101   28.7760   16.3059 H         1 NAP         0.0000 
     62 H4D        17.5751   26.3471   15.1351 H         1 NAP         0.0000 
     63 H3D        15.6083   26.0976   17.0184 H         1 NAP         0.0000 
     64 HO3N       16.8698   24.1013   16.4703 H         1 NAP         0.0000 
     65 H2D        16.4146   27.7581   18.6649 H         1 NAP         0.0000 
     66 HO2N       15.9863   25.9158   19.9633 H         1 NAP         0.0000 
     67 H1D        19.2830   26.4453   18.2908 H         1 NAP         0.0000 
     68 H2N        17.7135   29.8692   17.9964 H         1 NAP         0.0000 
     69 H71N       17.1389   31.6280   17.9867 H         1 NAP         0.0000 
     70 H72N       17.2637   33.4298   18.5934 H         1 NAP         0.0000 
     71 H4N        20.6910   31.1590   20.9350 H         1 NAP         0.0000 
     72 H5N        21.5866   28.9281   21.1124 H         1 NAP         0.0000 
     73 H6N        20.6099   27.1098   19.7506 H         1 NAP         0.0000 
@<TRIPOS>BOND
     1    1    2 2    
     2    1    3 1    
     3    1    4 1    
     4    1   23 1    
     5    4    5 1    
     6    5    6 1    
     7    5   49 1    
     8    5   50 1    
     9    6    7 1    
    10    6    8 1    
    11    6   51 1    
    12    7   12 1    
    13    8    9 1    
    14    8   10 1    
    15    8   52 1    
    16    9   53 1    
    17   10   11 1    
    18   10   12 1    
    19   10   54 1    
    20   11   45 1    
    21   12   13 1    
    22   12   55 1    
    23   13   14 ar   
    24   13   22 ar   
    25   14   15 ar   
    26   14   56 1    
    27   15   16 ar   
    28   16   17 ar   
    29   16   22 ar   
    30   17   18 1    
    31   17   19 ar   
    32   18   57 1    
    33   18   58 1    
    34   19   20 ar   
    35   20   21 ar   
    36   20   59 1    
    37   21   22 ar   
    38   23   24 1    
    39   24   25 2    
    40   24   26 1    
    41   24   27 1    
    42   27   28 1    
    43   28   29 1    
    44   28   60 1    
    45   28   61 1    
    46   29   30 1    
    47   29   31 1    
    48   29   62 1    
    49   30   35 1    
    50   31   32 1    
    51   31   33 1    
    52   31   63 1    
    53   32   64 1    
    54   33   34 1    
    55   33   35 1    
    56   33   65 1    
    57   34   66 1    
    58   35   36 1    
    59   35   67 1    
    60   36   37 1    
    61   36   44 1    
    62   37   38 2    
    63   37   68 1    
    64   38   39 1    
    65   38   42 1    
    66   39   40 2    
    67   39   41 am   BACKBONE|DICT|INTERRES
    68   41   69 1    
    69   41   70 1    
    70   42   43 1    
    71   42   71 1    
    72   43   44 2    
    73   43   72 1    
    74   44   73 1    
    75   45   46 2    
    76   45   47 1    
    77   45   48 1    
@<TRIPOS>SUBSTRUCTURE
     1 NAP         1 GROUP             0       ****    0 ROOT    
@<TRIPOS>MOLECULE
NAP
72   76    1
SMALL
USER_CHARGES


@<TRIPOS>ATOM
      1 PA         17.1740   26.1340   12.0400 P.3       1 NAP         0.0000 
      2 O1A        16.0480   25.3140   12.5000 O.co2     1 NAP         0.0000 
      3 O2A        18.4780   26.1140   12.6700 O.co2     1 NAP         0.0000 
      4 O5B        17.3170   25.8890   10.4370 O.3       1 NAP         0.0000 
      5 C5B        17.8130   26.9900    9.4950 C.3       1 NAP         0.0000 
      6 C4B        17.9620   26.1550    8.3450 C.3       1 NAP         0.0000 
      7 O4B        17.8590   27.3510    7.2940 O.3       1 NAP         0.0000 
      8 C3B        18.8400   25.7890    7.5350 C.3       1 NAP         0.0000 
      9 O3B        18.2080   24.5970    7.8390 O.3       1 NAP         0.0000 
     10 C2B        19.2760   25.7510    6.1470 C.3       1 NAP         0.0000 
     11 O2B        18.8830   24.7390    5.4810 O.3       1 NAP         0.0000 
     12 C1B        18.3940   26.8940    5.9880 C.3       1 NAP         0.0000 
     13 N9A        19.2370   28.0900    5.5900 N.pl3     1 NAP         0.0000 
     14 C8A        20.4660   28.6370    6.0110 C.ar      1 NAP         0.0000 
     15 N7A        20.9350   29.5480    5.1920 N.2       1 NAP         0.0000 
     16 C5A        20.0030   29.6240    4.1730 C.ar      1 NAP         0.0000 
     17 C6A        19.9350   30.4020    2.9750 C.ar      1 NAP         0.0000 
     18 N6A        20.8890   31.2620    2.6350 N.pl3     1 NAP         0.0000 
     19 N1A        18.8410   30.2300    2.1530 N.ar      1 NAP         0.0000 
     20 C2A        17.8670   29.3500    2.4800 C.ar      1 NAP         0.0000 
     21 N3A        17.8590   28.5740    3.5790 N.ar      1 NAP         0.0000 
     22 C4A        18.9620   28.7580    4.3950 C.ar      1 NAP         0.0000 
     23 O3         16.4580   27.5660   12.2080 O.3       1 NAP         0.0000 
     24 PN         15.2160   28.0680   13.1530 P.3       1 NAP         0.0000 
     25 O1N        13.9830   27.4170   12.6420 O.2       1 NAP         0.0000 
     26 O2N        15.3080   29.5540   13.0930 O.3       1 NAP         0.0000 
     27 O5D        15.4870   27.6580   14.6850 O.3       1 NAP         0.0000 
     28 C5D        16.5990   28.1690   15.4750 C.3       1 NAP         0.0000 
     29 C4D        17.3950   26.9680   16.0250 C.3       1 NAP         0.0000 
     30 O4D        18.6530   27.3660   16.6140 O.3       1 NAP         0.0000 
     31 C3D        16.6940   26.1930   17.1670 C.3       1 NAP         0.0000 
     32 O3D        17.0850   24.8060   17.2870 O.3       1 NAP         0.0000 
     33 C2D        17.0930   26.9360   18.3930 C.3       1 NAP         0.0000 
     34 O2D        16.9790   26.2050   19.5880 O.co2     1 NAP         0.0000 
     35 C1D        18.5690   27.2430   18.0380 C.3       1 NAP         0.0000 
     36 N1N        19.1250   28.3610   18.8110 N.pl3     1 NAP         0.0000 
     37 C2N        18.5550   29.6410   18.6670 C.2       1 NAP         0.0000 
     38 C3N        19.1410   30.6830   19.4650 C.2       1 NAP         0.0000 
     39 C7N        18.6520   32.0500   19.4140 C.2       1 NAP         0.0000 
     40 O7N        19.1610   32.9430   20.1020 O.2       1 NAP         0.0000 
     41 N7N        17.6220   32.3900   18.6160 N.am      1 NAP         0.0000 
     42 C4N        20.2220   30.3760   20.3170 C.3       1 NAP         0.0000 
     43 C5N        20.7460   29.1390   20.4350 C.2       1 NAP         0.0000 
     44 C6N        20.2020   28.1290   19.6810 C.2       1 NAP         0.0000 
     45 P2B        19.6640   24.5550    4.0970 P.3       1 NAP         0.0000 
     46 O1X        21.1170   24.3600    4.4040 O.co2     1 NAP         0.0000 
     47 O2X        18.9640   23.4100    3.5430 O.co2     1 NAP         0.0000 
     48 O3X        19.3910   25.7980    3.3810 O.co2     1 NAP         0.0000 
     49 H51A       17.0483   27.7767    9.4157 H         1 NAP         0.0000 
     50 H52A       18.7432   27.4217    9.8931 H         1 NAP         0.0000 
     51 H4B        17.6025   25.1989    8.7533 H         1 NAP         0.0000 
     52 H3B        19.6806   26.4653    7.7495 H         1 NAP         0.0000 
     53 HO3A       17.8041   24.4305    8.8485 H         1 NAP         0.0000 
     54 H2B        20.3163   25.6482    5.8047 H         1 NAP         0.0000 
     55 H1B        17.6138   26.5596    5.2884 H         1 NAP         0.0000 
     56 H8A        21.0250   28.3690    6.9230 H         1 NAP         0.0000 
     57 H61A       21.7626   31.4011    3.2888 H         1 NAP         0.0000 
     58 H62A       20.8052   31.8349    1.6997 H         1 NAP         0.0000 
     59 H2A        17.0080   29.2570    1.7930 H         1 NAP         0.0000 
     60 H51N       17.2459   28.7905   14.8384 H         1 NAP         0.0000 
     61 H52N       16.2101   28.7760   16.3059 H         1 NAP         0.0000 
     62 H4D        17.5751   26.3471   15.1351 H         1 NAP         0.0000 
     63 H3D        15.6083   26.0976   17.0184 H         1 NAP         0.0000 
     64 HO3N       16.8698   24.1013   16.4703 H         1 NAP         0.0000 
     65 H2D        16.4146   27.7581   18.6649 H         1 NAP         0.0000 
     66 H1D        19.2830   26.4453   18.2908 H         1 NAP         0.0000 
     67 H2N        17.7135   29.8692   17.9964 H         1 NAP         0.0000 
     68 H71N       17.1389   31.6280   17.9867 H         1 NAP         0.0000 
     69 H72N       17.2637   33.4298   18.5934 H         1 NAP         0.0000 
     70 H4N        20.6910   31.1590   20.9350 H         1 NAP         0.0000 
     71 H5N        21.5866   28.9281   21.1124 H         1 NAP         0.0000 
     72 H6N        20.6099   27.1098   19.7506 H         1 NAP         0.0000 
@<TRIPOS>BOND
     1    1    2 2    
     2    1    3 1    
     3    1    4 1    
     4    1   23 1    
     5    4    5 1    
     6    5    6 1    
     7    5   49 1    
     8    5   50 1    
     9    6    7 1    
    10    6    8 1    
    11    6   51 1    
    12    7   12 1    
    13    8    9 1    
    14    8   10 1    
    15    8   52 1    
    16    9   53 1    
    17   10   11 1    
    18   10   12 1    
    19   10   54 1    
    20   11   45 1    
    21   12   13 1    
    22   12   55 1    
    23   13   14 ar   
    24   13   22 ar   
    25   14   15 ar   
    26   14   56 1    
    27   15   16 ar   
    28   16   17 ar   
    29   16   22 ar   
    30   17   18 1    
    31   17   19 ar   
    32   18   57 1    
    33   18   58 1    
    34   19   20 ar   
    35   20   21 ar   
    36   20   59 1    
    37   21   22 ar   
    38   23   24 1    
    39   24   25 2    
    40   24   26 1    
    41   24   27 1    
    42   27   28 1    
    43   28   29 1    
    44   28   60 1    
    45   28   61 1    
    46   29   30 1    
    47   29   31 1    
    48   29   62 1    
    49   30   35 1    
    50   31   32 1    
    51   31   33 1    
    52   31   63 1    
    53   32   64 1    
    54   33   34 1    
    55   33   35 1    
    56   33   65 1    
    57   35   36 1    
    58   35   66 1    
    59   36   37 1    
    60   36   44 1    
    61   37   38 2    
    62   37   67 1    
    63   38   39 1    
    64   38   42 1    
    65   39   40 2    
    66   39   41 am   BACKBONE|DICT|INTERRES
    67   41   68 1    
    68   41   69 1    
    69   42   43 1    
    70   42   70 1    
    71   43   44 2    
    72   43   71 1    
    73   44   72 1    
    74   45   46 2    
    75   45   47 1    
    76   45   48 1    
@<TRIPOS>SUBSTRUCTURE
     1 NAP         1 GROUP             0       ****    0 ROOT    
@<TRIPOS>MOLECULE
NAP
72   76    1
SMALL
USER_CHARGES


@<TRIPOS>ATOM
      1 PA         17.1740   26.1340   12.0400 P.3       1 NAP         0.0000 
      2 O1A        16.0480   25.3140   12.5000 O.co2     1 NAP         0.0000 
      3 O2A        18.4780   26.1140   12.6700 O.co2     1 NAP         0.0000 
      4 O5B        17.3170   25.8890   10.4370 O.3       1 NAP         0.0000 
      5 C5B        17.8130   26.9900    9.4950 C.3       1 NAP         0.0000 
      6 C4B        17.9620   26.1550    8.3450 C.3       1 NAP         0.0000 
      7 O4B        17.8590   27.3510    7.2940 O.3       1 NAP         0.0000 
      8 C3B        18.8400   25.7890    7.5350 C.3       1 NAP         0.0000 
      9 O3B        18.2080   24.5970    7.8390 O.3       1 NAP         0.0000 
     10 C2B        19.2760   25.7510    6.1470 C.3       1 NAP         0.0000 
     11 O2B        18.8830   24.7390    5.4810 O.3       1 NAP         0.0000 
     12 C1B        18.3940   26.8940    5.9880 C.3       1 NAP         0.0000 
     13 N9A        19.2370   28.0900    5.5900 N.pl3     1 NAP         0.0000 
     14 C8A        20.4660   28.6370    6.0110 C.ar      1 NAP         0.0000 
     15 N7A        20.9350   29.5480    5.1920 N.2       1 NAP         0.0000 
     16 C5A        20.0030   29.6240    4.1730 C.ar      1 NAP         0.0000 
     17 C6A        19.9350   30.4020    2.9750 C.ar      1 NAP         0.0000 
     18 N6A        20.8890   31.2620    2.6350 N.pl3     1 NAP         0.0000 
     19 N1A        18.8410   30.2300    2.1530 N.ar      1 NAP         0.0000 
     20 C2A        17.8670   29.3500    2.4800 C.ar      1 NAP         0.0000 
     21 N3A        17.8590   28.5740    3.5790 N.ar      1 NAP         0.0000 
     22 C4A        18.9620   28.7580    4.3950 C.ar      1 NAP         0.0000 
     23 O3         16.4580   27.5660   12.2080 O.3       1 NAP         0.0000 
     24 PN         15.2160   28.0680   13.1530 P.3       1 NAP         0.0000 
     25 O1N        13.9830   27.4170   12.6420 O.2       1 NAP         0.0000 
     26 O2N        15.3080   29.5540   13.0930 O.3       1 NAP         0.0000 
     27 O5D        15.4870   27.6580   14.6850 O.3       1 NAP         0.0000 
     28 C5D        16.5990   28.1690   15.4750 C.3       1 NAP         0.0000 
     29 C4D        17.3950   26.9680   16.0250 C.3       1 NAP         0.0000 
     30 O4D        18.6530   27.3660   16.6140 O.3       1 NAP         0.0000 
     31 C3D        16.6940   26.1930   17.1670 C.3       1 NAP         0.0000 
     32 O3D        17.0850   24.8060   17.2870 O.3       1 NAP         0.0000 
     33 C2D        17.0930   26.9360   18.3930 C.3       1 NAP         0.0000 
     34 O2D        16.9790   26.2050   19.5880 O.3       1 NAP         0.0000 
     35 C1D        18.5690   27.2430   18.0380 C.3       1 NAP         0.0000 
     36 N1N        19.1250   28.3610   18.8110 N.pl3     1 NAP         0.0000 
     37 C2N        18.5550   29.6410   18.6670 C.2       1 NAP         0.0000 
     38 C3N        19.1410   30.6830   19.4650 C.2       1 NAP         0.0000 
     39 C7N        18.6520   32.0500   19.4140 C.2       1 NAP         0.0000 
     40 O7N        19.1610   32.9430   20.1020 O.co2     1 NAP         0.0000 
     41 N7N        17.6220   32.3900   18.6160 N.2       1 NAP         0.0000 
     42 C4N        20.2220   30.3760   20.3170 C.3       1 NAP         0.0000 
     43 C5N        20.7460   29.1390   20.4350 C.2       1 NAP         0.0000 
     44 C6N        20.2020   28.1290   19.6810 C.2       1 NAP         0.0000 
     45 P2B        19.6640   24.5550    4.0970 P.3       1 NAP         0.0000 
     46 O1X        21.1170   24.3600    4.4040 O.co2     1 NAP         0.0000 
     47 O2X        18.9640   23.4100    3.5430 O.co2     1 NAP         0.0000 
     48 O3X        19.3910   25.7980    3.3810 O.co2     1 NAP         0.0000 
     49 H51A       17.0483   27.7767    9.4157 H         1 NAP         0.0000 
     50 H52A       18.7432   27.4217    9.8931 H         1 NAP         0.0000 
     51 H4B        17.6025   25.1989    8.7533 H         1 NAP         0.0000 
     52 H3B        19.6806   26.4653    7.7495 H         1 NAP         0.0000 
     53 HO3A       17.8041   24.4305    8.8485 H         1 NAP         0.0000 
     54 H2B        20.3163   25.6482    5.8047 H         1 NAP         0.0000 
     55 H1B        17.6138   26.5596    5.2884 H         1 NAP         0.0000 
     56 H8A        21.0250   28.3690    6.9230 H         1 NAP         0.0000 
     57 H61A       21.7626   31.4011    3.2888 H         1 NAP         0.0000 
     58 H62A       20.8052   31.8349    1.6997 H         1 NAP         0.0000 
     59 H2A        17.0080   29.2570    1.7930 H         1 NAP         0.0000 
     60 H51N       17.2459   28.7905   14.8384 H         1 NAP         0.0000 
     61 H52N       16.2101   28.7760   16.3059 H         1 NAP         0.0000 
     62 H4D        17.5751   26.3471   15.1351 H         1 NAP         0.0000 
     63 H3D        15.6083   26.0976   17.0184 H         1 NAP         0.0000 
     64 HO3N       16.8698   24.1013   16.4703 H         1 NAP         0.0000 
     65 H2D        16.4146   27.7581   18.6649 H         1 NAP         0.0000 
     66 HO2N       15.9863   25.9158   19.9633 H         1 NAP         0.0000 
     67 H1D        19.2830   26.4453   18.2908 H         1 NAP         0.0000 
     68 H2N        17.7135   29.8692   17.9964 H         1 NAP         0.0000 
     69 H72N       17.2637   33.4298   18.5934 H         1 NAP         0.0000 
     70 H4N        20.6910   31.1590   20.9350 H         1 NAP         0.0000 
     71 H5N        21.5866   28.9281   21.1124 H         1 NAP         0.0000 
     72 H6N        20.6099   27.1098   19.7506 H         1 NAP         0.0000 
@<TRIPOS>BOND
     1    1    2 2    
     2    1    3 1    
     3    1    4 1    
     4    1   23 1    
     5    4    5 1    
     6    5    6 1    
     7    5   49 1    
     8    5   50 1    
     9    6    7 1    
    10    6    8 1    
    11    6   51 1    
    12    7   12 1    
    13    8    9 1    
    14    8   10 1    
    15    8   52 1    
    16    9   53 1    
    17   10   11 1    
    18   10   12 1    
    19   10   54 1    
    20   11   45 1    
    21   12   13 1    
    22   12   55 1    
    23   13   14 ar   
    24   13   22 ar   
    25   14   15 ar   
    26   14   56 1    
    27   15   16 ar   
    28   16   17 ar   
    29   16   22 ar   
    30   17   18 1    
    31   17   19 ar   
    32   18   57 1    
    33   18   58 1    
    34   19   20 ar   
    35   20   21 ar   
    36   20   59 1    
    37   21   22 ar   
    38   23   24 1    
    39   24   25 2    
    40   24   26 1    
    41   24   27 1    
    42   27   28 1    
    43   28   29 1    
    44   28   60 1    
    45   28   61 1    
    46   29   30 1    
    47   29   31 1    
    48   29   62 1    
    49   30   35 1    
    50   31   32 1    
    51   31   33 1    
    52   31   63 1    
    53   32   64 1    
    54   33   34 1    
    55   33   35 1    
    56   33   65 1    
    57   34   66 1    
    58   35   36 1    
    59   35   67 1    
    60   36   37 1    
    61   36   44 1    
    62   37   38 2    
    63   37   68 1    
    64   38   39 1    
    65   38   42 1    
    66   39   40 1    
    67   39   41 2    
    68   41   69 1    
    69   42   43 1    
    70   42   70 1    
    71   43   44 2    
    72   43   71 1    
    73   44   72 1    
    74   45   46 2    
    75   45   47 1    
    76   45   48 1    
@<TRIPOS>SUBSTRUCTURE
     1 NAP         1 GROUP             0       ****    0 ROOT    
@<TRIPOS>MOLECULE
NAP
72   76    1
SMALL
USER_CHARGES


@<TRIPOS>ATOM
      1 PA         17.1740   26.1340   12.0400 P.3       1 NAP         0.0000 
      2 O1A        16.0480   25.3140   12.5000 O.co2     1 NAP         0.0000 
      3 O2A        18.4780   26.1140   12.6700 O.co2     1 NAP         0.0000 
      4 O5B        17.3170   25.8890   10.4370 O.3       1 NAP         0.0000 
      5 C5B        17.8130   26.9900    9.4950 C.3       1 NAP         0.0000 
      6 C4B        17.9620   26.1550    8.3450 C.3       1 NAP         0.0000 
      7 O4B        17.8590   27.3510    7.2940 O.3       1 NAP         0.0000 
      8 C3B        18.8400   25.7890    7.5350 C.3       1 NAP         0.0000 
      9 O3B        18.2080   24.5970    7.8390 O.3       1 NAP         0.0000 
     10 C2B        19.2760   25.7510    6.1470 C.3       1 NAP         0.0000 
     11 O2B        18.8830   24.7390    5.4810 O.3       1 NAP         0.0000 
     12 C1B        18.3940   26.8940    5.9880 C.3       1 NAP         0.0000 
     13 N9A        19.2370   28.0900    5.5900 N.pl3     1 NAP         0.0000 
     14 C8A        20.4660   28.6370    6.0110 C.ar      1 NAP         0.0000 
     15 N7A        20.9350   29.5480    5.1920 N.2       1 NAP         0.0000 
     16 C5A        20.0030   29.6240    4.1730 C.ar      1 NAP         0.0000 
     17 C6A        19.9350   30.4020    2.9750 C.ar      1 NAP         0.0000 
     18 N6A        20.8890   31.2620    2.6350 N.pl3     1 NAP         0.0000 
     19 N1A        18.8410   30.2300    2.1530 N.ar      1 NAP         0.0000 
     20 C2A        17.8670   29.3500    2.4800 C.ar      1 NAP         0.0000 
     21 N3A        17.8590   28.5740    3.5790 N.ar      1 NAP         0.0000 
     22 C4A        18.9620   28.7580    4.3950 C.ar      1 NAP         0.0000 
     23 O3         16.4580   27.5660   12.2080 O.3       1 NAP         0.0000 
     24 PN         15.2160   28.0680   13.1530 P.3       1 NAP         0.0000 
     25 O1N        13.9830   27.4170   12.6420 O.2       1 NAP         0.0000 
     26 O2N        15.3080   29.5540   13.0930 O.3       1 NAP         0.0000 
     27 O5D        15.4870   27.6580   14.6850 O.3       1 NAP         0.0000 
     28 C5D        16.5990   28.1690   15.4750 C.3       1 NAP         0.0000 
     29 C4D        17.3950   26.9680   16.0250 C.3       1 NAP         0.0000 
     30 O4D        18.6530   27.3660   16.6140 O.3       1 NAP         0.0000 
     31 C3D        16.6940   26.1930   17.1670 C.3       1 NAP         0.0000 
     32 O3D        17.0850   24.8060   17.2870 O.3       1 NAP         0.0000 
     33 C2D        17.0930   26.9360   18.3930 C.3       1 NAP         0.0000 
     34 O2D        16.9790   26.2050   19.5880 O.3       1 NAP         0.0000 
     35 C1D        18.5690   27.2430   18.0380 C.3       1 NAP         0.0000 
     36 N1N        19.1250   28.3610   18.8110 N.pl3     1 NAP         0.0000 
     37 C2N        18.5550   29.6410   18.6670 C.2       1 NAP         0.0000 
     38 C3N        19.1410   30.6830   19.4650 C.2       1 NAP         0.0000 
     39 C7N        18.6520   32.0500   19.4140 C.2       1 NAP         0.0000 
     40 O7N        19.1610   32.9430   20.1020 O.co2     1 NAP         0.0000 
     41 N7N        17.6220   32.3900   18.6160 N.2       1 NAP         0.0000 
     42 C4N        20.2220   30.3760   20.3170 C.3       1 NAP         0.0000 
     43 C5N        20.7460   29.1390   20.4350 C.2       1 NAP         0.0000 
     44 C6N        20.2020   28.1290   19.6810 C.2       1 NAP         0.0000 
     45 P2B        19.6640   24.5550    4.0970 P.3       1 NAP         0.0000 
     46 O1X        21.1170   24.3600    4.4040 O.co2     1 NAP         0.0000 
     47 O2X        18.9640   23.4100    3.5430 O.co2     1 NAP         0.0000 
     48 O3X        19.3910   25.7980    3.3810 O.co2     1 NAP         0.0000 
     49 H51A       17.0483   27.7767    9.4157 H         1 NAP         0.0000 
     50 H52A       18.7432   27.4217    9.8931 H         1 NAP         0.0000 
     51 H4B        17.6025   25.1989    8.7533 H         1 NAP         0.0000 
     52 H3B        19.6806   26.4653    7.7495 H         1 NAP         0.0000 
     53 HO3A       17.8041   24.4305    8.8485 H         1 NAP         0.0000 
     54 H2B        20.3163   25.6482    5.8047 H         1 NAP         0.0000 
     55 H1B        17.6138   26.5596    5.2884 H         1 NAP         0.0000 
     56 H8A        21.0250   28.3690    6.9230 H         1 NAP         0.0000 
     57 H61A       21.7626   31.4011    3.2888 H         1 NAP         0.0000 
     58 H62A       20.8052   31.8349    1.6997 H         1 NAP         0.0000 
     59 H2A        17.0080   29.2570    1.7930 H         1 NAP         0.0000 
     60 H51N       17.2459   28.7905   14.8384 H         1 NAP         0.0000 
     61 H52N       16.2101   28.7760   16.3059 H         1 NAP         0.0000 
     62 H4D        17.5751   26.3471   15.1351 H         1 NAP         0.0000 
     63 H3D        15.6083   26.0976   17.0184 H         1 NAP         0.0000 
     64 HO3N       16.8698   24.1013   16.4703 H         1 NAP         0.0000 
     65 H2D        16.4146   27.7581   18.6649 H         1 NAP         0.0000 
     66 HO2N       15.9863   25.9158   19.9633 H         1 NAP         0.0000 
     67 H1D        19.2830   26.4453   18.2908 H         1 NAP         0.0000 
     68 H2N        17.7135   29.8692   17.9964 H         1 NAP         0.0000 
     69 H71N       17.1389   31.6280   17.9867 H         1 NAP         0.0000 
     70 H4N        20.6910   31.1590   20.9350 H         1 NAP         0.0000 
     71 H5N        21.5866   28.9281   21.1124 H         1 NAP         0.0000 
     72 H6N        20.6099   27.1098   19.7506 H         1 NAP         0.0000 
@<TRIPOS>BOND
     1    1    2 2    
     2    1    3 1    
     3    1    4 1    
     4    1   23 1    
     5    4    5 1    
     6    5    6 1    
     7    5   49 1    
     8    5   50 1    
     9    6    7 1    
    10    6    8 1    
    11    6   51 1    
    12    7   12 1    
    13    8    9 1    
    14    8   10 1    
    15    8   52 1    
    16    9   53 1    
    17   10   11 1    
    18   10   12 1    
    19   10   54 1    
    20   11   45 1    
    21   12   13 1    
    22   12   55 1    
    23   13   14 ar   
    24   13   22 ar   
    25   14   15 ar   
    26   14   56 1    
    27   15   16 ar   
    28   16   17 ar   
    29   16   22 ar   
    30   17   18 1    
    31   17   19 ar   
    32   18   57 1    
    33   18   58 1    
    34   19   20 ar   
    35   20   21 ar   
    36   20   59 1    
    37   21   22 ar   
    38   23   24 1    
    39   24   25 2    
    40   24   26 1    
    41   24   27 1    
    42   27   28 1    
    43   28   29 1    
    44   28   60 1    
    45   28   61 1    
    46   29   30 1    
    47   29   31 1    
    48   29   62 1    
    49   30   35 1    
    50   31   32 1    
    51   31   33 1    
    52   31   63 1    
    53   32   64 1    
    54   33   34 1    
    55   33   35 1    
    56   33   65 1    
    57   34   66 1    
    58   35   36 1    
    59   35   67 1    
    60   36   37 1    
    61   36   44 1    
    62   37   38 2    
    63   37   68 1    
    64   38   39 1    
    65   38   42 1    
    66   39   40 1    
    67   39   41 2    
    68   41   69 1    
    69   42   43 1    
    70   42   70 1    
    71   43   44 2    
    72   43   71 1    
    73   44   72 1    
    74   45   46 2    
    75   45   47 1    
    76   45   48 1    
@<TRIPOS>SUBSTRUCTURE
     1 NAP         1 GROUP             0       ****    0 ROOT    
@<TRIPOS>MOLECULE
NAP
72   76    1
SMALL
USER_CHARGES


@<TRIPOS>ATOM
      1 PA         17.1740   26.1340   12.0400 P.3       1 NAP         0.0000 
      2 O1A        16.0480   25.3140   12.5000 O.co2     1 NAP         0.0000 
      3 O2A        18.4780   26.1140   12.6700 O.co2     1 NAP         0.0000 
      4 O5B        17.3170   25.8890   10.4370 O.3       1 NAP         0.0000 
      5 C5B        17.8130   26.9900    9.4950 C.3       1 NAP         0.0000 
      6 C4B        17.9620   26.1550    8.3450 C.3       1 NAP         0.0000 
      7 O4B        17.8590   27.3510    7.2940 O.3       1 NAP         0.0000 
      8 C3B        18.8400   25.7890    7.5350 C.3       1 NAP         0.0000 
      9 O3B        18.2080   24.5970    7.8390 O.co2     1 NAP         0.0000 
     10 C2B        19.2760   25.7510    6.1470 C.3       1 NAP         0.0000 
     11 O2B        18.8830   24.7390    5.4810 O.3       1 NAP         0.0000 
     12 C1B        18.3940   26.8940    5.9880 C.3       1 NAP         0.0000 
     13 N9A        19.2370   28.0900    5.5900 N.pl3     1 NAP         0.0000 
     14 C8A        20.4660   28.6370    6.0110 C.ar      1 NAP         0.0000 
     15 N7A        20.9350   29.5480    5.1920 N.2       1 NAP         0.0000 
     16 C5A        20.0030   29.6240    4.1730 C.ar      1 NAP         0.0000 
     17 C6A        19.9350   30.4020    2.9750 C.ar      1 NAP         0.0000 
     18 N6A        20.8890   31.2620    2.6350 N.pl3     1 NAP         0.0000 
     19 N1A        18.8410   30.2300    2.1530 N.ar      1 NAP         0.0000 
     20 C2A        17.8670   29.3500    2.4800 C.ar      1 NAP         0.0000 
     21 N3A        17.8590   28.5740    3.5790 N.ar      1 NAP         0.0000 
     22 C4A        18.9620   28.7580    4.3950 C.ar      1 NAP         0.0000 
     23 O3         16.4580   27.5660   12.2080 O.3       1 NAP         0.0000 
     24 PN         15.2160   28.0680   13.1530 P.3       1 NAP         0.0000 
     25 O1N        13.9830   27.4170   12.6420 O.2       1 NAP         0.0000 
     26 O2N        15.3080   29.5540   13.0930 O.3       1 NAP         0.0000 
     27 O5D        15.4870   27.6580   14.6850 O.3       1 NAP         0.0000 
     28 C5D        16.5990   28.1690   15.4750 C.3       1 NAP         0.0000 
     29 C4D        17.3950   26.9680   16.0250 C.3       1 NAP         0.0000 
     30 O4D        18.6530   27.3660   16.6140 O.3       1 NAP         0.0000 
     31 C3D        16.6940   26.1930   17.1670 C.3       1 NAP         0.0000 
     32 O3D        17.0850   24.8060   17.2870 O.3       1 NAP         0.0000 
     33 C2D        17.0930   26.9360   18.3930 C.3       1 NAP         0.0000 
     34 O2D        16.9790   26.2050   19.5880 O.3       1 NAP         0.0000 
     35 C1D        18.5690   27.2430   18.0380 C.3       1 NAP         0.0000 
     36 N1N        19.1250   28.3610   18.8110 N.pl3     1 NAP         0.0000 
     37 C2N        18.5550   29.6410   18.6670 C.2       1 NAP         0.0000 
     38 C3N        19.1410   30.6830   19.4650 C.2       1 NAP         0.0000 
     39 C7N        18.6520   32.0500   19.4140 C.2       1 NAP         0.0000 
     40 O7N        19.1610   32.9430   20.1020 O.2       1 NAP         0.0000 
     41 N7N        17.6220   32.3900   18.6160 N.am      1 NAP         0.0000 
     42 C4N        20.2220   30.3760   20.3170 C.3       1 NAP         0.0000 
     43 C5N        20.7460   29.1390   20.4350 C.2       1 NAP         0.0000 
     44 C6N        20.2020   28.1290   19.6810 C.2       1 NAP         0.0000 
     45 P2B        19.6640   24.5550    4.0970 P.3       1 NAP         0.0000 
     46 O1X        21.1170   24.3600    4.4040 O.co2     1 NAP         0.0000 
     47 O2X        18.9640   23.4100    3.5430 O.co2     1 NAP         0.0000 
     48 O3X        19.3910   25.7980    3.3810 O.co2     1 NAP         0.0000 
     49 H51A       17.0483   27.7767    9.4157 H         1 NAP         0.0000 
     50 H52A       18.7432   27.4217    9.8931 H         1 NAP         0.0000 
     51 H4B        17.6025   25.1989    8.7533 H         1 NAP         0.0000 
     52 H3B        19.6806   26.4653    7.7495 H         1 NAP         0.0000 
     53 H2B        20.3163   25.6482    5.8047 H         1 NAP         0.0000 
     54 H1B        17.6138   26.5596    5.2884 H         1 NAP         0.0000 
     55 H8A        21.0250   28.3690    6.9230 H         1 NAP         0.0000 
     56 H61A       21.7626   31.4011    3.2888 H         1 NAP         0.0000 
     57 H62A       20.8052   31.8349    1.6997 H         1 NAP         0.0000 
     58 H2A        17.0080   29.2570    1.7930 H         1 NAP         0.0000 
     59 H51N       17.2459   28.7905   14.8384 H         1 NAP         0.0000 
     60 H52N       16.2101   28.7760   16.3059 H         1 NAP         0.0000 
     61 H4D        17.5751   26.3471   15.1351 H         1 NAP         0.0000 
     62 H3D        15.6083   26.0976   17.0184 H         1 NAP         0.0000 
     63 HO3N       16.8698   24.1013   16.4703 H         1 NAP         0.0000 
     64 H2D        16.4146   27.7581   18.6649 H         1 NAP         0.0000 
     65 HO2N       15.9863   25.9158   19.9633 H         1 NAP         0.0000 
     66 H1D        19.2830   26.4453   18.2908 H         1 NAP         0.0000 
     67 H2N        17.7135   29.8692   17.9964 H         1 NAP         0.0000 
     68 H71N       17.1389   31.6280   17.9867 H         1 NAP         0.0000 
     69 H72N       17.2637   33.4298   18.5934 H         1 NAP         0.0000 
     70 H4N        20.6910   31.1590   20.9350 H         1 NAP         0.0000 
     71 H5N        21.5866   28.9281   21.1124 H         1 NAP         0.0000 
     72 H6N        20.6099   27.1098   19.7506 H         1 NAP         0.0000 
@<TRIPOS>BOND
     1    1    2 2    
     2    1    3 1    
     3    1    4 1    
     4    1   23 1    
     5    4    5 1    
     6    5    6 1    
     7    5   49 1    
     8    5   50 1    
     9    6    7 1    
    10    6    8 1    
    11    6   51 1    
    12    7   12 1    
    13    8    9 1    
    14    8   10 1    
    15    8   52 1    
    16   10   11 1    
    17   10   12 1    
    18   10   53 1    
    19   11   45 1    
    20   12   13 1    
    21   12   54 1    
    22   13   14 ar   
    23   13   22 ar   
    24   14   15 ar   
    25   14   55 1    
    26   15   16 ar   
    27   16   17 ar   
    28   16   22 ar   
    29   17   18 1    
    30   17   19 ar   
    31   18   56 1    
    32   18   57 1    
    33   19   20 ar   
    34   20   21 ar   
    35   20   58 1    
    36   21   22 ar   
    37   23   24 1    
    38   24   25 2    
    39   24   26 1    
    40   24   27 1    
    41   27   28 1    
    42   28   29 1    
    43   28   59 1    
    44   28   60 1    
    45   29   30 1    
    46   29   31 1    
    47   29   61 1    
    48   30   35 1    
    49   31   32 1    
    50   31   33 1    
    51   31   62 1    
    52   32   63 1    
    53   33   34 1    
    54   33   35 1    
    55   33   64 1    
    56   34   65 1    
    57   35   36 1    
    58   35   66 1    
    59   36   37 1    
    60   36   44 1    
    61   37   38 2    
    62   37   67 1    
    63   38   39 1    
    64   38   42 1    
    65   39   40 2    
    66   39   41 am   BACKBONE|DICT|INTERRES
    67   41   68 1    
    68   41   69 1    
    69   42   43 1    
    70   42   70 1    
    71   43   44 2    
    72   43   71 1    
    73   44   72 1    
    74   45   46 2    
    75   45   47 1    
    76   45   48 1    
@<TRIPOS>SUBSTRUCTURE
     1 NAP         1 GROUP             0       ****    0 ROOT    
@<TRIPOS>MOLECULE
NAP
72   76    1
SMALL
USER_CHARGES


@<TRIPOS>ATOM
      1 PA         17.1740   26.1340   12.0400 P.3       1 NAP         0.0000 
      2 O1A        16.0480   25.3140   12.5000 O.co2     1 NAP         0.0000 
      3 O2A        18.4780   26.1140   12.6700 O.co2     1 NAP         0.0000 
      4 O5B        17.3170   25.8890   10.4370 O.3       1 NAP         0.0000 
      5 C5B        17.8130   26.9900    9.4950 C.3       1 NAP         0.0000 
      6 C4B        17.9620   26.1550    8.3450 C.3       1 NAP         0.0000 
      7 O4B        17.8590   27.3510    7.2940 O.3       1 NAP         0.0000 
      8 C3B        18.8400   25.7890    7.5350 C.3       1 NAP         0.0000 
      9 O3B        18.2080   24.5970    7.8390 O.3       1 NAP         0.0000 
     10 C2B        19.2760   25.7510    6.1470 C.3       1 NAP         0.0000 
     11 O2B        18.8830   24.7390    5.4810 O.3       1 NAP         0.0000 
     12 C1B        18.3940   26.8940    5.9880 C.3       1 NAP         0.0000 
     13 N9A        19.2370   28.0900    5.5900 N.pl3     1 NAP         0.0000 
     14 C8A        20.4660   28.6370    6.0110 C.ar      1 NAP         0.0000 
     15 N7A        20.9350   29.5480    5.1920 N.2       1 NAP         0.0000 
     16 C5A        20.0030   29.6240    4.1730 C.ar      1 NAP         0.0000 
     17 C6A        19.9350   30.4020    2.9750 C.ar      1 NAP         0.0000 
     18 N6A        20.8890   31.2620    2.6350 N.pl3     1 NAP         0.0000 
     19 N1A        18.8410   30.2300    2.1530 N.ar      1 NAP         0.0000 
     20 C2A        17.8670   29.3500    2.4800 C.ar      1 NAP         0.0000 
     21 N3A        17.8590   28.5740    3.5790 N.ar      1 NAP         0.0000 
     22 C4A        18.9620   28.7580    4.3950 C.ar      1 NAP         0.0000 
     23 O3         16.4580   27.5660   12.2080 O.3       1 NAP         0.0000 
     24 PN         15.2160   28.0680   13.1530 P.3       1 NAP         0.0000 
     25 O1N        13.9830   27.4170   12.6420 O.2       1 NAP         0.0000 
     26 O2N        15.3080   29.5540   13.0930 O.3       1 NAP         0.0000 
     27 O5D        15.4870   27.6580   14.6850 O.3       1 NAP         0.0000 
     28 C5D        16.5990   28.1690   15.4750 C.3       1 NAP         0.0000 
     29 C4D        17.3950   26.9680   16.0250 C.3       1 NAP         0.0000 
     30 O4D        18.6530   27.3660   16.6140 O.3       1 NAP         0.0000 
     31 C3D        16.6940   26.1930   17.1670 C.3       1 NAP         0.0000 
     32 O3D        17.0850   24.8060   17.2870 O.co2     1 NAP         0.0000 
     33 C2D        17.0930   26.9360   18.3930 C.3       1 NAP         0.0000 
     34 O2D        16.9790   26.2050   19.5880 O.3       1 NAP         0.0000 
     35 C1D        18.5690   27.2430   18.0380 C.3       1 NAP         0.0000 
     36 N1N        19.1250   28.3610   18.8110 N.pl3     1 NAP         0.0000 
     37 C2N        18.5550   29.6410   18.6670 C.2       1 NAP         0.0000 
     38 C3N        19.1410   30.6830   19.4650 C.2       1 NAP         0.0000 
     39 C7N        18.6520   32.0500   19.4140 C.2       1 NAP         0.0000 
     40 O7N        19.1610   32.9430   20.1020 O.2       1 NAP         0.0000 
     41 N7N        17.6220   32.3900   18.6160 N.am      1 NAP         0.0000 
     42 C4N        20.2220   30.3760   20.3170 C.3       1 NAP         0.0000 
     43 C5N        20.7460   29.1390   20.4350 C.2       1 NAP         0.0000 
     44 C6N        20.2020   28.1290   19.6810 C.2       1 NAP         0.0000 
     45 P2B        19.6640   24.5550    4.0970 P.3       1 NAP         0.0000 
     46 O1X        21.1170   24.3600    4.4040 O.co2     1 NAP         0.0000 
     47 O2X        18.9640   23.4100    3.5430 O.co2     1 NAP         0.0000 
     48 O3X        19.3910   25.7980    3.3810 O.co2     1 NAP         0.0000 
     49 H51A       17.0483   27.7767    9.4157 H         1 NAP         0.0000 
     50 H52A       18.7432   27.4217    9.8931 H         1 NAP         0.0000 
     51 H4B        17.6025   25.1989    8.7533 H         1 NAP         0.0000 
     52 H3B        19.6806   26.4653    7.7495 H         1 NAP         0.0000 
     53 HO3A       17.8041   24.4305    8.8485 H         1 NAP         0.0000 
     54 H2B        20.3163   25.6482    5.8047 H         1 NAP         0.0000 
     55 H1B        17.6138   26.5596    5.2884 H         1 NAP         0.0000 
     56 H8A        21.0250   28.3690    6.9230 H         1 NAP         0.0000 
     57 H61A       21.7626   31.4011    3.2888 H         1 NAP         0.0000 
     58 H62A       20.8052   31.8349    1.6997 H         1 NAP         0.0000 
     59 H2A        17.0080   29.2570    1.7930 H         1 NAP         0.0000 
     60 H51N       17.2459   28.7905   14.8384 H         1 NAP         0.0000 
     61 H52N       16.2101   28.7760   16.3059 H         1 NAP         0.0000 
     62 H4D        17.5751   26.3471   15.1351 H         1 NAP         0.0000 
     63 H3D        15.6083   26.0976   17.0184 H         1 NAP         0.0000 
     64 H2D        16.4146   27.7581   18.6649 H         1 NAP         0.0000 
     65 HO2N       15.9863   25.9158   19.9633 H         1 NAP         0.0000 
     66 H1D        19.2830   26.4453   18.2908 H         1 NAP         0.0000 
     67 H2N        17.7135   29.8692   17.9964 H         1 NAP         0.0000 
     68 H71N       17.1389   31.6280   17.9867 H         1 NAP         0.0000 
     69 H72N       17.2637   33.4298   18.5934 H         1 NAP         0.0000 
     70 H4N        20.6910   31.1590   20.9350 H         1 NAP         0.0000 
     71 H5N        21.5866   28.9281   21.1124 H         1 NAP         0.0000 
     72 H6N        20.6099   27.1098   19.7506 H         1 NAP         0.0000 
@<TRIPOS>BOND
     1    1    2 2    
     2    1    3 1    
     3    1    4 1    
     4    1   23 1    
     5    4    5 1    
     6    5    6 1    
     7    5   49 1    
     8    5   50 1    
     9    6    7 1    
    10    6    8 1    
    11    6   51 1    
    12    7   12 1    
    13    8    9 1    
    14    8   10 1    
    15    8   52 1    
    16    9   53 1    
    17   10   11 1    
    18   10   12 1    
    19   10   54 1    
    20   11   45 1    
    21   12   13 1    
    22   12   55 1    
    23   13   14 ar   
    24   13   22 ar   
    25   14   15 ar   
    26   14   56 1    
    27   15   16 ar   
    28   16   17 ar   
    29   16   22 ar   
    30   17   18 1    
    31   17   19 ar   
    32   18   57 1    
    33   18   58 1    
    34   19   20 ar   
    35   20   21 ar   
    36   20   59 1    
    37   21   22 ar   
    38   23   24 1    
    39   24   25 2    
    40   24   26 1    
    41   24   27 1    
    42   27   28 1    
    43   28   29 1    
    44   28   60 1    
    45   28   61 1    
    46   29   30 1    
    47   29   31 1    
    48   29   62 1    
    49   30   35 1    
    50   31   32 1    
    51   31   33 1    
    52   31   63 1    
    53   33   34 1    
    54   33   35 1    
    55   33   64 1    
    56   34   65 1    
    57   35   36 1    
    58   35   66 1    
    59   36   37 1    
    60   36   44 1    
    61   37   38 2    
    62   37   67 1    
    63   38   39 1    
    64   38   42 1    
    65   39   40 2    
    66   39   41 am   BACKBONE|DICT|INTERRES
    67   41   68 1    
    68   41   69 1    
    69   42   43 1    
    70   42   70 1    
    71   43   44 2    
    72   43   71 1    
    73   44   72 1    
    74   45   46 2    
    75   45   47 1    
    76   45   48 1    
@<TRIPOS>SUBSTRUCTURE
     1 NAP         1 GROUP             0       ****    0 ROOT    
@<TRIPOS>MOLECULE
NAP
72   76    1
SMALL
USER_CHARGES


@<TRIPOS>ATOM
      1 PA         17.1740   26.1340   12.0400 P.3       1 NAP         0.0000 
      2 O1A        16.0480   25.3140   12.5000 O.co2     1 NAP         0.0000 
      3 O2A        18.4780   26.1140   12.6700 O.co2     1 NAP         0.0000 
      4 O5B        17.3170   25.8890   10.4370 O.3       1 NAP         0.0000 
      5 C5B        17.8130   26.9900    9.4950 C.3       1 NAP         0.0000 
      6 C4B        17.9620   26.1550    8.3450 C.3       1 NAP         0.0000 
      7 O4B        17.8590   27.3510    7.2940 O.3       1 NAP         0.0000 
      8 C3B        18.8400   25.7890    7.5350 C.3       1 NAP         0.0000 
      9 O3B        18.2080   24.5970    7.8390 O.3       1 NAP         0.0000 
     10 C2B        19.2760   25.7510    6.1470 C.3       1 NAP         0.0000 
     11 O2B        18.8830   24.7390    5.4810 O.3       1 NAP         0.0000 
     12 C1B        18.3940   26.8940    5.9880 C.3       1 NAP         0.0000 
     13 N9A        19.2370   28.0900    5.5900 N.pl3     1 NAP         0.0000 
     14 C8A        20.4660   28.6370    6.0110 C.ar      1 NAP         0.0000 
     15 N7A        20.9350   29.5480    5.1920 N.2       1 NAP         0.0000 
     16 C5A        20.0030   29.6240    4.1730 C.ar      1 NAP         0.0000 
     17 C6A        19.9350   30.4020    2.9750 C.ar      1 NAP         0.0000 
     18 N6A        20.8890   31.2620    2.6350 N.2       1 NAP         0.0000 
     19 N1A        18.8410   30.2300    2.1530 N.ar      1 NAP         0.0000 
     20 C2A        17.8670   29.3500    2.4800 C.ar      1 NAP         0.0000 
     21 N3A        17.8590   28.5740    3.5790 N.ar      1 NAP         0.0000 
     22 C4A        18.9620   28.7580    4.3950 C.ar      1 NAP         0.0000 
     23 O3         16.4580   27.5660   12.2080 O.3       1 NAP         0.0000 
     24 PN         15.2160   28.0680   13.1530 P.3       1 NAP         0.0000 
     25 O1N        13.9830   27.4170   12.6420 O.2       1 NAP         0.0000 
     26 O2N        15.3080   29.5540   13.0930 O.3       1 NAP         0.0000 
     27 O5D        15.4870   27.6580   14.6850 O.3       1 NAP         0.0000 
     28 C5D        16.5990   28.1690   15.4750 C.3       1 NAP         0.0000 
     29 C4D        17.3950   26.9680   16.0250 C.3       1 NAP         0.0000 
     30 O4D        18.6530   27.3660   16.6140 O.3       1 NAP         0.0000 
     31 C3D        16.6940   26.1930   17.1670 C.3       1 NAP         0.0000 
     32 O3D        17.0850   24.8060   17.2870 O.3       1 NAP         0.0000 
     33 C2D        17.0930   26.9360   18.3930 C.3       1 NAP         0.0000 
     34 O2D        16.9790   26.2050   19.5880 O.3       1 NAP         0.0000 
     35 C1D        18.5690   27.2430   18.0380 C.3       1 NAP         0.0000 
     36 N1N        19.1250   28.3610   18.8110 N.pl3     1 NAP         0.0000 
     37 C2N        18.5550   29.6410   18.6670 C.2       1 NAP         0.0000 
     38 C3N        19.1410   30.6830   19.4650 C.2       1 NAP         0.0000 
     39 C7N        18.6520   32.0500   19.4140 C.2       1 NAP         0.0000 
     40 O7N        19.1610   32.9430   20.1020 O.2       1 NAP         0.0000 
     41 N7N        17.6220   32.3900   18.6160 N.am      1 NAP         0.0000 
     42 C4N        20.2220   30.3760   20.3170 C.3       1 NAP         0.0000 
     43 C5N        20.7460   29.1390   20.4350 C.2       1 NAP         0.0000 
     44 C6N        20.2020   28.1290   19.6810 C.2       1 NAP         0.0000 
     45 P2B        19.6640   24.5550    4.0970 P.3       1 NAP         0.0000 
     46 O1X        21.1170   24.3600    4.4040 O.co2     1 NAP         0.0000 
     47 O2X        18.9640   23.4100    3.5430 O.co2     1 NAP         0.0000 
     48 O3X        19.3910   25.7980    3.3810 O.co2     1 NAP         0.0000 
     49 H51A       17.0483   27.7767    9.4157 H         1 NAP         0.0000 
     50 H52A       18.7432   27.4217    9.8931 H         1 NAP         0.0000 
     51 H4B        17.6025   25.1989    8.7533 H         1 NAP         0.0000 
     52 H3B        19.6806   26.4653    7.7495 H         1 NAP         0.0000 
     53 HO3A       17.8041   24.4305    8.8485 H         1 NAP         0.0000 
     54 H2B        20.3163   25.6482    5.8047 H         1 NAP         0.0000 
     55 H1B        17.6138   26.5596    5.2884 H         1 NAP         0.0000 
     56 H8A        21.0250   28.3690    6.9230 H         1 NAP         0.0000 
     57 H62A       21.7626   31.4011    3.2888 H         1 NAP         0.0000 
     58 H2A        17.0080   29.2570    1.7930 H         1 NAP         0.0000 
     59 H51N       17.2459   28.7905   14.8384 H         1 NAP         0.0000 
     60 H52N       16.2101   28.7760   16.3059 H         1 NAP         0.0000 
     61 H4D        17.5751   26.3471   15.1351 H         1 NAP         0.0000 
     62 H3D        15.6083   26.0976   17.0184 H         1 NAP         0.0000 
     63 HO3N       16.8698   24.1013   16.4703 H         1 NAP         0.0000 
     64 H2D        16.4146   27.7581   18.6649 H         1 NAP         0.0000 
     65 HO2N       15.9863   25.9158   19.9633 H         1 NAP         0.0000 
     66 H1D        19.2830   26.4453   18.2908 H         1 NAP         0.0000 
     67 H2N        17.7135   29.8692   17.9964 H         1 NAP         0.0000 
     68 H71N       17.1389   31.6280   17.9867 H         1 NAP         0.0000 
     69 H72N       17.2637   33.4298   18.5934 H         1 NAP         0.0000 
     70 H4N        20.6910   31.1590   20.9350 H         1 NAP         0.0000 
     71 H5N        21.5866   28.9281   21.1124 H         1 NAP         0.0000 
     72 H6N        20.6099   27.1098   19.7506 H         1 NAP         0.0000 
@<TRIPOS>BOND
     1    1    2 2    
     2    1    3 1    
     3    1    4 1    
     4    1   23 1    
     5    4    5 1    
     6    5    6 1    
     7    5   49 1    
     8    5   50 1    
     9    6    7 1    
    10    6    8 1    
    11    6   51 1    
    12    7   12 1    
    13    8    9 1    
    14    8   10 1    
    15    8   52 1    
    16    9   53 1    
    17   10   11 1    
    18   10   12 1    
    19   10   54 1    
    20   11   45 1    
    21   12   13 1    
    22   12   55 1    
    23   13   14 ar   
    24   13   22 ar   
    25   14   15 ar   
    26   14   56 1    
    27   15   16 ar   
    28   16   17 ar   
    29   16   22 ar   
    30   17   18 1    
    31   17   19 ar   
    32   18   57 1    
    33   19   20 ar   
    34   20   21 ar   
    35   20   58 1    
    36   21   22 ar   
    37   23   24 1    
    38   24   25 2    
    39   24   26 1    
    40   24   27 1    
    41   27   28 1    
    42   28   29 1    
    43   28   59 1    
    44   28   60 1    
    45   29   30 1    
    46   29   31 1    
    47   29   61 1    
    48   30   35 1    
    49   31   32 1    
    50   31   33 1    
    51   31   62 1    
    52   32   63 1    
    53   33   34 1    
    54   33   35 1    
    55   33   64 1    
    56   34   65 1    
    57   35   36 1    
    58   35   66 1    
    59   36   37 1    
    60   36   44 1    
    61   37   38 2    
    62   37   67 1    
    63   38   39 1    
    64   38   42 1    
    65   39   40 2    
    66   39   41 am   BACKBONE|DICT|INTERRES
    67   41   68 1    
    68   41   69 1    
    69   42   43 1    
    70   42   70 1    
    71   43   44 2    
    72   43   71 1    
    73   44   72 1    
    74   45   46 2    
    75   45   47 1    
    76   45   48 1    
@<TRIPOS>SUBSTRUCTURE
     1 NAP         1 GROUP             0       ****    0 ROOT    
@<TRIPOS>MOLECULE
NAP
71   75    1
SMALL
USER_CHARGES


@<TRIPOS>ATOM
      1 PA         17.1740   26.1340   12.0400 P.3       1 NAP         0.0000 
      2 O1A        16.0480   25.3140   12.5000 O.co2     1 NAP         0.0000 
      3 O2A        18.4780   26.1140   12.6700 O.co2     1 NAP         0.0000 
      4 O5B        17.3170   25.8890   10.4370 O.3       1 NAP         0.0000 
      5 C5B        17.8130   26.9900    9.4950 C.3       1 NAP         0.0000 
      6 C4B        17.9620   26.1550    8.3450 C.3       1 NAP         0.0000 
      7 O4B        17.8590   27.3510    7.2940 O.3       1 NAP         0.0000 
      8 C3B        18.8400   25.7890    7.5350 C.3       1 NAP         0.0000 
      9 O3B        18.2080   24.5970    7.8390 O.3       1 NAP         0.0000 
     10 C2B        19.2760   25.7510    6.1470 C.3       1 NAP         0.0000 
     11 O2B        18.8830   24.7390    5.4810 O.3       1 NAP         0.0000 
     12 C1B        18.3940   26.8940    5.9880 C.3       1 NAP         0.0000 
     13 N9A        19.2370   28.0900    5.5900 N.pl3     1 NAP         0.0000 
     14 C8A        20.4660   28.6370    6.0110 C.ar      1 NAP         0.0000 
     15 N7A        20.9350   29.5480    5.1920 N.2       1 NAP         0.0000 
     16 C5A        20.0030   29.6240    4.1730 C.ar      1 NAP         0.0000 
     17 C6A        19.9350   30.4020    2.9750 C.ar      1 NAP         0.0000 
     18 N6A        20.8890   31.2620    2.6350 N.pl3     1 NAP         0.0000 
     19 N1A        18.8410   30.2300    2.1530 N.ar      1 NAP         0.0000 
     20 C2A        17.8670   29.3500    2.4800 C.ar      1 NAP         0.0000 
     21 N3A        17.8590   28.5740    3.5790 N.ar      1 NAP         0.0000 
     22 C4A        18.9620   28.7580    4.3950 C.ar      1 NAP         0.0000 
     23 O3         16.4580   27.5660   12.2080 O.3       1 NAP         0.0000 
     24 PN         15.2160   28.0680   13.1530 P.3       1 NAP         0.0000 
     25 O1N        13.9830   27.4170   12.6420 O.2       1 NAP         0.0000 
     26 O2N        15.3080   29.5540   13.0930 O.3       1 NAP         0.0000 
     27 O5D        15.4870   27.6580   14.6850 O.3       1 NAP         0.0000 
     28 C5D        16.5990   28.1690   15.4750 C.3       1 NAP         0.0000 
     29 C4D        17.3950   26.9680   16.0250 C.3       1 NAP         0.0000 
     30 O4D        18.6530   27.3660   16.6140 O.3       1 NAP         0.0000 
     31 C3D        16.6940   26.1930   17.1670 C.3       1 NAP         0.0000 
     32 O3D        17.0850   24.8060   17.2870 O.3       1 NAP         0.0000 
     33 C2D        17.0930   26.9360   18.3930 C.3       1 NAP         0.0000 
     34 O2D        16.9790   26.2050   19.5880 O.co2     1 NAP         0.0000 
     35 C1D        18.5690   27.2430   18.0380 C.3       1 NAP         0.0000 
     36 N1N        19.1250   28.3610   18.8110 N.pl3     1 NAP         0.0000 
     37 C2N        18.5550   29.6410   18.6670 C.2       1 NAP         0.0000 
     38 C3N        19.1410   30.6830   19.4650 C.2       1 NAP         0.0000 
     39 C7N        18.6520   32.0500   19.4140 C.2       1 NAP         0.0000 
     40 O7N        19.1610   32.9430   20.1020 O.co2     1 NAP         0.0000 
     41 N7N        17.6220   32.3900   18.6160 N.2       1 NAP         0.0000 
     42 C4N        20.2220   30.3760   20.3170 C.3       1 NAP         0.0000 
     43 C5N        20.7460   29.1390   20.4350 C.2       1 NAP         0.0000 
     44 C6N        20.2020   28.1290   19.6810 C.2       1 NAP         0.0000 
     45 P2B        19.6640   24.5550    4.0970 P.3       1 NAP         0.0000 
     46 O1X        21.1170   24.3600    4.4040 O.co2     1 NAP         0.0000 
     47 O2X        18.9640   23.4100    3.5430 O.co2     1 NAP         0.0000 
     48 O3X        19.3910   25.7980    3.3810 O.co2     1 NAP         0.0000 
     49 H51A       17.0483   27.7767    9.4157 H         1 NAP         0.0000 
     50 H52A       18.7432   27.4217    9.8931 H         1 NAP         0.0000 
     51 H4B        17.6025   25.1989    8.7533 H         1 NAP         0.0000 
     52 H3B        19.6806   26.4653    7.7495 H         1 NAP         0.0000 
     53 HO3A       17.8041   24.4305    8.8485 H         1 NAP         0.0000 
     54 H2B        20.3163   25.6482    5.8047 H         1 NAP         0.0000 
     55 H1B        17.6138   26.5596    5.2884 H         1 NAP         0.0000 
     56 H8A        21.0250   28.3690    6.9230 H         1 NAP         0.0000 
     57 H61A       21.7626   31.4011    3.2888 H         1 NAP         0.0000 
     58 H62A       20.8052   31.8349    1.6997 H         1 NAP         0.0000 
     59 H2A        17.0080   29.2570    1.7930 H         1 NAP         0.0000 
     60 H51N       17.2459   28.7905   14.8384 H         1 NAP         0.0000 
     61 H52N       16.2101   28.7760   16.3059 H         1 NAP         0.0000 
     62 H4D        17.5751   26.3471   15.1351 H         1 NAP         0.0000 
     63 H3D        15.6083   26.0976   17.0184 H         1 NAP         0.0000 
     64 HO3N       16.8698   24.1013   16.4703 H         1 NAP         0.0000 
     65 H2D        16.4146   27.7581   18.6649 H         1 NAP         0.0000 
     66 H1D        19.2830   26.4453   18.2908 H         1 NAP         0.0000 
     67 H2N        17.7135   29.8692   17.9964 H         1 NAP         0.0000 
     68 H71N       17.1389   31.6280   17.9867 H         1 NAP         0.0000 
     69 H4N        20.6910   31.1590   20.9350 H         1 NAP         0.0000 
     70 H5N        21.5866   28.9281   21.1124 H         1 NAP         0.0000 
     71 H6N        20.6099   27.1098   19.7506 H         1 NAP         0.0000 
@<TRIPOS>BOND
     1    1    2 2    
     2    1    3 1    
     3    1    4 1    
     4    1   23 1    
     5    4    5 1    
     6    5    6 1    
     7    5   49 1    
     8    5   50 1    
     9    6    7 1    
    10    6    8 1    
    11    6   51 1    
    12    7   12 1    
    13    8    9 1    
    14    8   10 1    
    15    8   52 1    
    16    9   53 1    
    17   10   11 1    
    18   10   12 1    
    19   10   54 1    
    20   11   45 1    
    21   12   13 1    
    22   12   55 1    
    23   13   14 ar   
    24   13   22 ar   
    25   14   15 ar   
    26   14   56 1    
    27   15   16 ar   
    28   16   17 ar   
    29   16   22 ar   
    30   17   18 1    
    31   17   19 ar   
    32   18   57 1    
    33   18   58 1    
    34   19   20 ar   
    35   20   21 ar   
    36   20   59 1    
    37   21   22 ar   
    38   23   24 1    
    39   24   25 2    
    40   24   26 1    
    41   24   27 1    
    42   27   28 1    
    43   28   29 1    
    44   28   60 1    
    45   28   61 1    
    46   29   30 1    
    47   29   31 1    
    48   29   62 1    
    49   30   35 1    
    50   31   32 1    
    51   31   33 1    
    52   31   63 1    
    53   32   64 1    
    54   33   34 1    
    55   33   35 1    
    56   33   65 1    
    57   35   36 1    
    58   35   66 1    
    59   36   37 1    
    60   36   44 1    
    61   37   38 2    
    62   37   67 1    
    63   38   39 1    
    64   38   42 1    
    65   39   40 1    
    66   39   41 2    
    67   41   68 1    
    68   42   43 1    
    69   42   69 1    
    70   43   44 2    
    71   43   70 1    
    72   44   71 1    
    73   45   46 2    
    74   45   47 1    
    75   45   48 1    
@<TRIPOS>SUBSTRUCTURE
     1 NAP         1 GROUP             0       ****    0 ROOT    
@<TRIPOS>MOLECULE
NAP
71   75    1
SMALL
USER_CHARGES


@<TRIPOS>ATOM
      1 PA         17.1740   26.1340   12.0400 P.3       1 NAP         0.0000 
      2 O1A        16.0480   25.3140   12.5000 O.co2     1 NAP         0.0000 
      3 O2A        18.4780   26.1140   12.6700 O.co2     1 NAP         0.0000 
      4 O5B        17.3170   25.8890   10.4370 O.3       1 NAP         0.0000 
      5 C5B        17.8130   26.9900    9.4950 C.3       1 NAP         0.0000 
      6 C4B        17.9620   26.1550    8.3450 C.3       1 NAP         0.0000 
      7 O4B        17.8590   27.3510    7.2940 O.3       1 NAP         0.0000 
      8 C3B        18.8400   25.7890    7.5350 C.3       1 NAP         0.0000 
      9 O3B        18.2080   24.5970    7.8390 O.3       1 NAP         0.0000 
     10 C2B        19.2760   25.7510    6.1470 C.3       1 NAP         0.0000 
     11 O2B        18.8830   24.7390    5.4810 O.3       1 NAP         0.0000 
     12 C1B        18.3940   26.8940    5.9880 C.3       1 NAP         0.0000 
     13 N9A        19.2370   28.0900    5.5900 N.pl3     1 NAP         0.0000 
     14 C8A        20.4660   28.6370    6.0110 C.ar      1 NAP         0.0000 
     15 N7A        20.9350   29.5480    5.1920 N.2       1 NAP         0.0000 
     16 C5A        20.0030   29.6240    4.1730 C.ar      1 NAP         0.0000 
     17 C6A        19.9350   30.4020    2.9750 C.ar      1 NAP         0.0000 
     18 N6A        20.8890   31.2620    2.6350 N.pl3     1 NAP         0.0000 
     19 N1A        18.8410   30.2300    2.1530 N.ar      1 NAP         0.0000 
     20 C2A        17.8670   29.3500    2.4800 C.ar      1 NAP         0.0000 
     21 N3A        17.8590   28.5740    3.5790 N.ar      1 NAP         0.0000 
     22 C4A        18.9620   28.7580    4.3950 C.ar      1 NAP         0.0000 
     23 O3         16.4580   27.5660   12.2080 O.3       1 NAP         0.0000 
     24 PN         15.2160   28.0680   13.1530 P.3       1 NAP         0.0000 
     25 O1N        13.9830   27.4170   12.6420 O.2       1 NAP         0.0000 
     26 O2N        15.3080   29.5540   13.0930 O.3       1 NAP         0.0000 
     27 O5D        15.4870   27.6580   14.6850 O.3       1 NAP         0.0000 
     28 C5D        16.5990   28.1690   15.4750 C.3       1 NAP         0.0000 
     29 C4D        17.3950   26.9680   16.0250 C.3       1 NAP         0.0000 
     30 O4D        18.6530   27.3660   16.6140 O.3       1 NAP         0.0000 
     31 C3D        16.6940   26.1930   17.1670 C.3       1 NAP         0.0000 
     32 O3D        17.0850   24.8060   17.2870 O.3       1 NAP         0.0000 
     33 C2D        17.0930   26.9360   18.3930 C.3       1 NAP         0.0000 
     34 O2D        16.9790   26.2050   19.5880 O.co2     1 NAP         0.0000 
     35 C1D        18.5690   27.2430   18.0380 C.3       1 NAP         0.0000 
     36 N1N        19.1250   28.3610   18.8110 N.pl3     1 NAP         0.0000 
     37 C2N        18.5550   29.6410   18.6670 C.2       1 NAP         0.0000 
     38 C3N        19.1410   30.6830   19.4650 C.2       1 NAP         0.0000 
     39 C7N        18.6520   32.0500   19.4140 C.2       1 NAP         0.0000 
     40 O7N        19.1610   32.9430   20.1020 O.co2     1 NAP         0.0000 
     41 N7N        17.6220   32.3900   18.6160 N.2       1 NAP         0.0000 
     42 C4N        20.2220   30.3760   20.3170 C.3       1 NAP         0.0000 
     43 C5N        20.7460   29.1390   20.4350 C.2       1 NAP         0.0000 
     44 C6N        20.2020   28.1290   19.6810 C.2       1 NAP         0.0000 
     45 P2B        19.6640   24.5550    4.0970 P.3       1 NAP         0.0000 
     46 O1X        21.1170   24.3600    4.4040 O.co2     1 NAP         0.0000 
     47 O2X        18.9640   23.4100    3.5430 O.co2     1 NAP         0.0000 
     48 O3X        19.3910   25.7980    3.3810 O.co2     1 NAP         0.0000 
     49 H51A       17.0483   27.7767    9.4157 H         1 NAP         0.0000 
     50 H52A       18.7432   27.4217    9.8931 H         1 NAP         0.0000 
     51 H4B        17.6025   25.1989    8.7533 H         1 NAP         0.0000 
     52 H3B        19.6806   26.4653    7.7495 H         1 NAP         0.0000 
     53 HO3A       17.8041   24.4305    8.8485 H         1 NAP         0.0000 
     54 H2B        20.3163   25.6482    5.8047 H         1 NAP         0.0000 
     55 H1B        17.6138   26.5596    5.2884 H         1 NAP         0.0000 
     56 H8A        21.0250   28.3690    6.9230 H         1 NAP         0.0000 
     57 H61A       21.7626   31.4011    3.2888 H         1 NAP         0.0000 
     58 H62A       20.8052   31.8349    1.6997 H         1 NAP         0.0000 
     59 H2A        17.0080   29.2570    1.7930 H         1 NAP         0.0000 
     60 H51N       17.2459   28.7905   14.8384 H         1 NAP         0.0000 
     61 H52N       16.2101   28.7760   16.3059 H         1 NAP         0.0000 
     62 H4D        17.5751   26.3471   15.1351 H         1 NAP         0.0000 
     63 H3D        15.6083   26.0976   17.0184 H         1 NAP         0.0000 
     64 HO3N       16.8698   24.1013   16.4703 H         1 NAP         0.0000 
     65 H2D        16.4146   27.7581   18.6649 H         1 NAP         0.0000 
     66 H1D        19.2830   26.4453   18.2908 H         1 NAP         0.0000 
     67 H2N        17.7135   29.8692   17.9964 H         1 NAP         0.0000 
     68 H72N       17.2637   33.4298   18.5934 H         1 NAP         0.0000 
     69 H4N        20.6910   31.1590   20.9350 H         1 NAP         0.0000 
     70 H5N        21.5866   28.9281   21.1124 H         1 NAP         0.0000 
     71 H6N        20.6099   27.1098   19.7506 H         1 NAP         0.0000 
@<TRIPOS>BOND
     1    1    2 2    
     2    1    3 1    
     3    1    4 1    
     4    1   23 1    
     5    4    5 1    
     6    5    6 1    
     7    5   49 1    
     8    5   50 1    
     9    6    7 1    
    10    6    8 1    
    11    6   51 1    
    12    7   12 1    
    13    8    9 1    
    14    8   10 1    
    15    8   52 1    
    16    9   53 1    
    17   10   11 1    
    18   10   12 1    
    19   10   54 1    
    20   11   45 1    
    21   12   13 1    
    22   12   55 1    
    23   13   14 ar   
    24   13   22 ar   
    25   14   15 ar   
    26   14   56 1    
    27   15   16 ar   
    28   16   17 ar   
    29   16   22 ar   
    30   17   18 1    
    31   17   19 ar   
    32   18   57 1    
    33   18   58 1    
    34   19   20 ar   
    35   20   21 ar   
    36   20   59 1    
    37   21   22 ar   
    38   23   24 1    
    39   24   25 2    
    40   24   26 1    
    41   24   27 1    
    42   27   28 1    
    43   28   29 1    
    44   28   60 1    
    45   28   61 1    
    46   29   30 1    
    47   29   31 1    
    48   29   62 1    
    49   30   35 1    
    50   31   32 1    
    51   31   33 1    
    52   31   63 1    
    53   32   64 1    
    54   33   34 1    
    55   33   35 1    
    56   33   65 1    
    57   35   36 1    
    58   35   66 1    
    59   36   37 1    
    60   36   44 1    
    61   37   38 2    
    62   37   67 1    
    63   38   39 1    
    64   38   42 1    
    65   39   40 1    
    66   39   41 2    
    67   41   68 1    
    68   42   43 1    
    69   42   69 1    
    70   43   44 2    
    71   43   70 1    
    72   44   71 1    
    73   45   46 2    
    74   45   47 1    
    75   45   48 1    
@<TRIPOS>SUBSTRUCTURE
     1 NAP         1 GROUP             0       ****    0 ROOT    
@<TRIPOS>MOLECULE
NAP
71   75    1
SMALL
USER_CHARGES


@<TRIPOS>ATOM
      1 PA         17.1740   26.1340   12.0400 P.3       1 NAP         0.0000 
      2 O1A        16.0480   25.3140   12.5000 O.co2     1 NAP         0.0000 
      3 O2A        18.4780   26.1140   12.6700 O.co2     1 NAP         0.0000 
      4 O5B        17.3170   25.8890   10.4370 O.3       1 NAP         0.0000 
      5 C5B        17.8130   26.9900    9.4950 C.3       1 NAP         0.0000 
      6 C4B        17.9620   26.1550    8.3450 C.3       1 NAP         0.0000 
      7 O4B        17.8590   27.3510    7.2940 O.3       1 NAP         0.0000 
      8 C3B        18.8400   25.7890    7.5350 C.3       1 NAP         0.0000 
      9 O3B        18.2080   24.5970    7.8390 O.co2     1 NAP         0.0000 
     10 C2B        19.2760   25.7510    6.1470 C.3       1 NAP         0.0000 
     11 O2B        18.8830   24.7390    5.4810 O.3       1 NAP         0.0000 
     12 C1B        18.3940   26.8940    5.9880 C.3       1 NAP         0.0000 
     13 N9A        19.2370   28.0900    5.5900 N.pl3     1 NAP         0.0000 
     14 C8A        20.4660   28.6370    6.0110 C.ar      1 NAP         0.0000 
     15 N7A        20.9350   29.5480    5.1920 N.2       1 NAP         0.0000 
     16 C5A        20.0030   29.6240    4.1730 C.ar      1 NAP         0.0000 
     17 C6A        19.9350   30.4020    2.9750 C.ar      1 NAP         0.0000 
     18 N6A        20.8890   31.2620    2.6350 N.pl3     1 NAP         0.0000 
     19 N1A        18.8410   30.2300    2.1530 N.ar      1 NAP         0.0000 
     20 C2A        17.8670   29.3500    2.4800 C.ar      1 NAP         0.0000 
     21 N3A        17.8590   28.5740    3.5790 N.ar      1 NAP         0.0000 
     22 C4A        18.9620   28.7580    4.3950 C.ar      1 NAP         0.0000 
     23 O3         16.4580   27.5660   12.2080 O.3       1 NAP         0.0000 
     24 PN         15.2160   28.0680   13.1530 P.3       1 NAP         0.0000 
     25 O1N        13.9830   27.4170   12.6420 O.2       1 NAP         0.0000 
     26 O2N        15.3080   29.5540   13.0930 O.3       1 NAP         0.0000 
     27 O5D        15.4870   27.6580   14.6850 O.3       1 NAP         0.0000 
     28 C5D        16.5990   28.1690   15.4750 C.3       1 NAP         0.0000 
     29 C4D        17.3950   26.9680   16.0250 C.3       1 NAP         0.0000 
     30 O4D        18.6530   27.3660   16.6140 O.3       1 NAP         0.0000 
     31 C3D        16.6940   26.1930   17.1670 C.3       1 NAP         0.0000 
     32 O3D        17.0850   24.8060   17.2870 O.3       1 NAP         0.0000 
     33 C2D        17.0930   26.9360   18.3930 C.3       1 NAP         0.0000 
     34 O2D        16.9790   26.2050   19.5880 O.co2     1 NAP         0.0000 
     35 C1D        18.5690   27.2430   18.0380 C.3       1 NAP         0.0000 
     36 N1N        19.1250   28.3610   18.8110 N.pl3     1 NAP         0.0000 
     37 C2N        18.5550   29.6410   18.6670 C.2       1 NAP         0.0000 
     38 C3N        19.1410   30.6830   19.4650 C.2       1 NAP         0.0000 
     39 C7N        18.6520   32.0500   19.4140 C.2       1 NAP         0.0000 
     40 O7N        19.1610   32.9430   20.1020 O.2       1 NAP         0.0000 
     41 N7N        17.6220   32.3900   18.6160 N.am      1 NAP         0.0000 
     42 C4N        20.2220   30.3760   20.3170 C.3       1 NAP         0.0000 
     43 C5N        20.7460   29.1390   20.4350 C.2       1 NAP         0.0000 
     44 C6N        20.2020   28.1290   19.6810 C.2       1 NAP         0.0000 
     45 P2B        19.6640   24.5550    4.0970 P.3       1 NAP         0.0000 
     46 O1X        21.1170   24.3600    4.4040 O.co2     1 NAP         0.0000 
     47 O2X        18.9640   23.4100    3.5430 O.co2     1 NAP         0.0000 
     48 O3X        19.3910   25.7980    3.3810 O.co2     1 NAP         0.0000 
     49 H51A       17.0483   27.7767    9.4157 H         1 NAP         0.0000 
     50 H52A       18.7432   27.4217    9.8931 H         1 NAP         0.0000 
     51 H4B        17.6025   25.1989    8.7533 H         1 NAP         0.0000 
     52 H3B        19.6806   26.4653    7.7495 H         1 NAP         0.0000 
     53 H2B        20.3163   25.6482    5.8047 H         1 NAP         0.0000 
     54 H1B        17.6138   26.5596    5.2884 H         1 NAP         0.0000 
     55 H8A        21.0250   28.3690    6.9230 H         1 NAP         0.0000 
     56 H61A       21.7626   31.4011    3.2888 H         1 NAP         0.0000 
     57 H62A       20.8052   31.8349    1.6997 H         1 NAP         0.0000 
     58 H2A        17.0080   29.2570    1.7930 H         1 NAP         0.0000 
     59 H51N       17.2459   28.7905   14.8384 H         1 NAP         0.0000 
     60 H52N       16.2101   28.7760   16.3059 H         1 NAP         0.0000 
     61 H4D        17.5751   26.3471   15.1351 H         1 NAP         0.0000 
     62 H3D        15.6083   26.0976   17.0184 H         1 NAP         0.0000 
     63 HO3N       16.8698   24.1013   16.4703 H         1 NAP         0.0000 
     64 H2D        16.4146   27.7581   18.6649 H         1 NAP         0.0000 
     65 H1D        19.2830   26.4453   18.2908 H         1 NAP         0.0000 
     66 H2N        17.7135   29.8692   17.9964 H         1 NAP         0.0000 
     67 H71N       17.1389   31.6280   17.9867 H         1 NAP         0.0000 
     68 H72N       17.2637   33.4298   18.5934 H         1 NAP         0.0000 
     69 H4N        20.6910   31.1590   20.9350 H         1 NAP         0.0000 
     70 H5N        21.5866   28.9281   21.1124 H         1 NAP         0.0000 
     71 H6N        20.6099   27.1098   19.7506 H         1 NAP         0.0000 
@<TRIPOS>BOND
     1    1    2 2    
     2    1    3 1    
     3    1    4 1    
     4    1   23 1    
     5    4    5 1    
     6    5    6 1    
     7    5   49 1    
     8    5   50 1    
     9    6    7 1    
    10    6    8 1    
    11    6   51 1    
    12    7   12 1    
    13    8    9 1    
    14    8   10 1    
    15    8   52 1    
    16   10   11 1    
    17   10   12 1    
    18   10   53 1    
    19   11   45 1    
    20   12   13 1    
    21   12   54 1    
    22   13   14 ar   
    23   13   22 ar   
    24   14   15 ar   
    25   14   55 1    
    26   15   16 ar   
    27   16   17 ar   
    28   16   22 ar   
    29   17   18 1    
    30   17   19 ar   
    31   18   56 1    
    32   18   57 1    
    33   19   20 ar   
    34   20   21 ar   
    35   20   58 1    
    36   21   22 ar   
    37   23   24 1    
    38   24   25 2    
    39   24   26 1    
    40   24   27 1    
    41   27   28 1    
    42   28   29 1    
    43   28   59 1    
    44   28   60 1    
    45   29   30 1    
    46   29   31 1    
    47   29   61 1    
    48   30   35 1    
    49   31   32 1    
    50   31   33 1    
    51   31   62 1    
    52   32   63 1    
    53   33   34 1    
    54   33   35 1    
    55   33   64 1    
    56   35   36 1    
    57   35   65 1    
    58   36   37 1    
    59   36   44 1    
    60   37   38 2    
    61   37   66 1    
    62   38   39 1    
    63   38   42 1    
    64   39   40 2    
    65   39   41 am   BACKBONE|DICT|INTERRES
    66   41   67 1    
    67   41   68 1    
    68   42   43 1    
    69   42   69 1    
    70   43   44 2    
    71   43   70 1    
    72   44   71 1    
    73   45   46 2    
    74   45   47 1    
    75   45   48 1    
@<TRIPOS>SUBSTRUCTURE
     1 NAP         1 GROUP             0       ****    0 ROOT    
@<TRIPOS>MOLECULE
NAP
71   75    1
SMALL
USER_CHARGES


@<TRIPOS>ATOM
      1 PA         17.1740   26.1340   12.0400 P.3       1 NAP         0.0000 
      2 O1A        16.0480   25.3140   12.5000 O.co2     1 NAP         0.0000 
      3 O2A        18.4780   26.1140   12.6700 O.co2     1 NAP         0.0000 
      4 O5B        17.3170   25.8890   10.4370 O.3       1 NAP         0.0000 
      5 C5B        17.8130   26.9900    9.4950 C.3       1 NAP         0.0000 
      6 C4B        17.9620   26.1550    8.3450 C.3       1 NAP         0.0000 
      7 O4B        17.8590   27.3510    7.2940 O.3       1 NAP         0.0000 
      8 C3B        18.8400   25.7890    7.5350 C.3       1 NAP         0.0000 
      9 O3B        18.2080   24.5970    7.8390 O.co2     1 NAP         0.0000 
     10 C2B        19.2760   25.7510    6.1470 C.3       1 NAP         0.0000 
     11 O2B        18.8830   24.7390    5.4810 O.3       1 NAP         0.0000 
     12 C1B        18.3940   26.8940    5.9880 C.3       1 NAP         0.0000 
     13 N9A        19.2370   28.0900    5.5900 N.pl3     1 NAP         0.0000 
     14 C8A        20.4660   28.6370    6.0110 C.ar      1 NAP         0.0000 
     15 N7A        20.9350   29.5480    5.1920 N.2       1 NAP         0.0000 
     16 C5A        20.0030   29.6240    4.1730 C.ar      1 NAP         0.0000 
     17 C6A        19.9350   30.4020    2.9750 C.ar      1 NAP         0.0000 
     18 N6A        20.8890   31.2620    2.6350 N.pl3     1 NAP         0.0000 
     19 N1A        18.8410   30.2300    2.1530 N.ar      1 NAP         0.0000 
     20 C2A        17.8670   29.3500    2.4800 C.ar      1 NAP         0.0000 
     21 N3A        17.8590   28.5740    3.5790 N.ar      1 NAP         0.0000 
     22 C4A        18.9620   28.7580    4.3950 C.ar      1 NAP         0.0000 
     23 O3         16.4580   27.5660   12.2080 O.3       1 NAP         0.0000 
     24 PN         15.2160   28.0680   13.1530 P.3       1 NAP         0.0000 
     25 O1N        13.9830   27.4170   12.6420 O.2       1 NAP         0.0000 
     26 O2N        15.3080   29.5540   13.0930 O.3       1 NAP         0.0000 
     27 O5D        15.4870   27.6580   14.6850 O.3       1 NAP         0.0000 
     28 C5D        16.5990   28.1690   15.4750 C.3       1 NAP         0.0000 
     29 C4D        17.3950   26.9680   16.0250 C.3       1 NAP         0.0000 
     30 O4D        18.6530   27.3660   16.6140 O.3       1 NAP         0.0000 
     31 C3D        16.6940   26.1930   17.1670 C.3       1 NAP         0.0000 
     32 O3D        17.0850   24.8060   17.2870 O.3       1 NAP         0.0000 
     33 C2D        17.0930   26.9360   18.3930 C.3       1 NAP         0.0000 
     34 O2D        16.9790   26.2050   19.5880 O.3       1 NAP         0.0000 
     35 C1D        18.5690   27.2430   18.0380 C.3       1 NAP         0.0000 
     36 N1N        19.1250   28.3610   18.8110 N.pl3     1 NAP         0.0000 
     37 C2N        18.5550   29.6410   18.6670 C.2       1 NAP         0.0000 
     38 C3N        19.1410   30.6830   19.4650 C.2       1 NAP         0.0000 
     39 C7N        18.6520   32.0500   19.4140 C.2       1 NAP         0.0000 
     40 O7N        19.1610   32.9430   20.1020 O.co2     1 NAP         0.0000 
     41 N7N        17.6220   32.3900   18.6160 N.2       1 NAP         0.0000 
     42 C4N        20.2220   30.3760   20.3170 C.3       1 NAP         0.0000 
     43 C5N        20.7460   29.1390   20.4350 C.2       1 NAP         0.0000 
     44 C6N        20.2020   28.1290   19.6810 C.2       1 NAP         0.0000 
     45 P2B        19.6640   24.5550    4.0970 P.3       1 NAP         0.0000 
     46 O1X        21.1170   24.3600    4.4040 O.co2     1 NAP         0.0000 
     47 O2X        18.9640   23.4100    3.5430 O.co2     1 NAP         0.0000 
     48 O3X        19.3910   25.7980    3.3810 O.co2     1 NAP         0.0000 
     49 H51A       17.0483   27.7767    9.4157 H         1 NAP         0.0000 
     50 H52A       18.7432   27.4217    9.8931 H         1 NAP         0.0000 
     51 H4B        17.6025   25.1989    8.7533 H         1 NAP         0.0000 
     52 H3B        19.6806   26.4653    7.7495 H         1 NAP         0.0000 
     53 H2B        20.3163   25.6482    5.8047 H         1 NAP         0.0000 
     54 H1B        17.6138   26.5596    5.2884 H         1 NAP         0.0000 
     55 H8A        21.0250   28.3690    6.9230 H         1 NAP         0.0000 
     56 H61A       21.7626   31.4011    3.2888 H         1 NAP         0.0000 
     57 H62A       20.8052   31.8349    1.6997 H         1 NAP         0.0000 
     58 H2A        17.0080   29.2570    1.7930 H         1 NAP         0.0000 
     59 H51N       17.2459   28.7905   14.8384 H         1 NAP         0.0000 
     60 H52N       16.2101   28.7760   16.3059 H         1 NAP         0.0000 
     61 H4D        17.5751   26.3471   15.1351 H         1 NAP         0.0000 
     62 H3D        15.6083   26.0976   17.0184 H         1 NAP         0.0000 
     63 HO3N       16.8698   24.1013   16.4703 H         1 NAP         0.0000 
     64 H2D        16.4146   27.7581   18.6649 H         1 NAP         0.0000 
     65 HO2N       15.9863   25.9158   19.9633 H         1 NAP         0.0000 
     66 H1D        19.2830   26.4453   18.2908 H         1 NAP         0.0000 
     67 H2N        17.7135   29.8692   17.9964 H         1 NAP         0.0000 
     68 H72N       17.2637   33.4298   18.5934 H         1 NAP         0.0000 
     69 H4N        20.6910   31.1590   20.9350 H         1 NAP         0.0000 
     70 H5N        21.5866   28.9281   21.1124 H         1 NAP         0.0000 
     71 H6N        20.6099   27.1098   19.7506 H         1 NAP         0.0000 
@<TRIPOS>BOND
     1    1    2 2    
     2    1    3 1    
     3    1    4 1    
     4    1   23 1    
     5    4    5 1    
     6    5    6 1    
     7    5   49 1    
     8    5   50 1    
     9    6    7 1    
    10    6    8 1    
    11    6   51 1    
    12    7   12 1    
    13    8    9 1    
    14    8   10 1    
    15    8   52 1    
    16   10   11 1    
    17   10   12 1    
    18   10   53 1    
    19   11   45 1    
    20   12   13 1    
    21   12   54 1    
    22   13   14 ar   
    23   13   22 ar   
    24   14   15 ar   
    25   14   55 1    
    26   15   16 ar   
    27   16   17 ar   
    28   16   22 ar   
    29   17   18 1    
    30   17   19 ar   
    31   18   56 1    
    32   18   57 1    
    33   19   20 ar   
    34   20   21 ar   
    35   20   58 1    
    36   21   22 ar   
    37   23   24 1    
    38   24   25 2    
    39   24   26 1    
    40   24   27 1    
    41   27   28 1    
    42   28   29 1    
    43   28   59 1    
    44   28   60 1    
    45   29   30 1    
    46   29   31 1    
    47   29   61 1    
    48   30   35 1    
    49   31   32 1    
    50   31   33 1    
    51   31   62 1    
    52   32   63 1    
    53   33   34 1    
    54   33   35 1    
    55   33   64 1    
    56   34   65 1    
    57   35   36 1    
    58   35   66 1    
    59   36   37 1    
    60   36   44 1    
    61   37   38 2    
    62   37   67 1    
    63   38   39 1    
    64   38   42 1    
    65   39   40 1    
    66   39   41 2    
    67   41   68 1    
    68   42   43 1    
    69   42   69 1    
    70   43   44 2    
    71   43   70 1    
    72   44   71 1    
    73   45   46 2    
    74   45   47 1    
    75   45   48 1    
@<TRIPOS>SUBSTRUCTURE
     1 NAP         1 GROUP             0       ****    0 ROOT    
@<TRIPOS>MOLECULE
NAP
71   75    1
SMALL
USER_CHARGES


@<TRIPOS>ATOM
      1 PA         17.1740   26.1340   12.0400 P.3       1 NAP         0.0000 
      2 O1A        16.0480   25.3140   12.5000 O.co2     1 NAP         0.0000 
      3 O2A        18.4780   26.1140   12.6700 O.co2     1 NAP         0.0000 
      4 O5B        17.3170   25.8890   10.4370 O.3       1 NAP         0.0000 
      5 C5B        17.8130   26.9900    9.4950 C.3       1 NAP         0.0000 
      6 C4B        17.9620   26.1550    8.3450 C.3       1 NAP         0.0000 
      7 O4B        17.8590   27.3510    7.2940 O.3       1 NAP         0.0000 
      8 C3B        18.8400   25.7890    7.5350 C.3       1 NAP         0.0000 
      9 O3B        18.2080   24.5970    7.8390 O.co2     1 NAP         0.0000 
     10 C2B        19.2760   25.7510    6.1470 C.3       1 NAP         0.0000 
     11 O2B        18.8830   24.7390    5.4810 O.3       1 NAP         0.0000 
     12 C1B        18.3940   26.8940    5.9880 C.3       1 NAP         0.0000 
     13 N9A        19.2370   28.0900    5.5900 N.pl3     1 NAP         0.0000 
     14 C8A        20.4660   28.6370    6.0110 C.ar      1 NAP         0.0000 
     15 N7A        20.9350   29.5480    5.1920 N.2       1 NAP         0.0000 
     16 C5A        20.0030   29.6240    4.1730 C.ar      1 NAP         0.0000 
     17 C6A        19.9350   30.4020    2.9750 C.ar      1 NAP         0.0000 
     18 N6A        20.8890   31.2620    2.6350 N.pl3     1 NAP         0.0000 
     19 N1A        18.8410   30.2300    2.1530 N.ar      1 NAP         0.0000 
     20 C2A        17.8670   29.3500    2.4800 C.ar      1 NAP         0.0000 
     21 N3A        17.8590   28.5740    3.5790 N.ar      1 NAP         0.0000 
     22 C4A        18.9620   28.7580    4.3950 C.ar      1 NAP         0.0000 
     23 O3         16.4580   27.5660   12.2080 O.3       1 NAP         0.0000 
     24 PN         15.2160   28.0680   13.1530 P.3       1 NAP         0.0000 
     25 O1N        13.9830   27.4170   12.6420 O.2       1 NAP         0.0000 
     26 O2N        15.3080   29.5540   13.0930 O.3       1 NAP         0.0000 
     27 O5D        15.4870   27.6580   14.6850 O.3       1 NAP         0.0000 
     28 C5D        16.5990   28.1690   15.4750 C.3       1 NAP         0.0000 
     29 C4D        17.3950   26.9680   16.0250 C.3       1 NAP         0.0000 
     30 O4D        18.6530   27.3660   16.6140 O.3       1 NAP         0.0000 
     31 C3D        16.6940   26.1930   17.1670 C.3       1 NAP         0.0000 
     32 O3D        17.0850   24.8060   17.2870 O.3       1 NAP         0.0000 
     33 C2D        17.0930   26.9360   18.3930 C.3       1 NAP         0.0000 
     34 O2D        16.9790   26.2050   19.5880 O.3       1 NAP         0.0000 
     35 C1D        18.5690   27.2430   18.0380 C.3       1 NAP         0.0000 
     36 N1N        19.1250   28.3610   18.8110 N.pl3     1 NAP         0.0000 
     37 C2N        18.5550   29.6410   18.6670 C.2       1 NAP         0.0000 
     38 C3N        19.1410   30.6830   19.4650 C.2       1 NAP         0.0000 
     39 C7N        18.6520   32.0500   19.4140 C.2       1 NAP         0.0000 
     40 O7N        19.1610   32.9430   20.1020 O.co2     1 NAP         0.0000 
     41 N7N        17.6220   32.3900   18.6160 N.2       1 NAP         0.0000 
     42 C4N        20.2220   30.3760   20.3170 C.3       1 NAP         0.0000 
     43 C5N        20.7460   29.1390   20.4350 C.2       1 NAP         0.0000 
     44 C6N        20.2020   28.1290   19.6810 C.2       1 NAP         0.0000 
     45 P2B        19.6640   24.5550    4.0970 P.3       1 NAP         0.0000 
     46 O1X        21.1170   24.3600    4.4040 O.co2     1 NAP         0.0000 
     47 O2X        18.9640   23.4100    3.5430 O.co2     1 NAP         0.0000 
     48 O3X        19.3910   25.7980    3.3810 O.co2     1 NAP         0.0000 
     49 H51A       17.0483   27.7767    9.4157 H         1 NAP         0.0000 
     50 H52A       18.7432   27.4217    9.8931 H         1 NAP         0.0000 
     51 H4B        17.6025   25.1989    8.7533 H         1 NAP         0.0000 
     52 H3B        19.6806   26.4653    7.7495 H         1 NAP         0.0000 
     53 H2B        20.3163   25.6482    5.8047 H         1 NAP         0.0000 
     54 H1B        17.6138   26.5596    5.2884 H         1 NAP         0.0000 
     55 H8A        21.0250   28.3690    6.9230 H         1 NAP         0.0000 
     56 H61A       21.7626   31.4011    3.2888 H         1 NAP         0.0000 
     57 H62A       20.8052   31.8349    1.6997 H         1 NAP         0.0000 
     58 H2A        17.0080   29.2570    1.7930 H         1 NAP         0.0000 
     59 H51N       17.2459   28.7905   14.8384 H         1 NAP         0.0000 
     60 H52N       16.2101   28.7760   16.3059 H         1 NAP         0.0000 
     61 H4D        17.5751   26.3471   15.1351 H         1 NAP         0.0000 
     62 H3D        15.6083   26.0976   17.0184 H         1 NAP         0.0000 
     63 HO3N       16.8698   24.1013   16.4703 H         1 NAP         0.0000 
     64 H2D        16.4146   27.7581   18.6649 H         1 NAP         0.0000 
     65 HO2N       15.9863   25.9158   19.9633 H         1 NAP         0.0000 
     66 H1D        19.2830   26.4453   18.2908 H         1 NAP         0.0000 
     67 H2N        17.7135   29.8692   17.9964 H         1 NAP         0.0000 
     68 H71N       17.1389   31.6280   17.9867 H         1 NAP         0.0000 
     69 H4N        20.6910   31.1590   20.9350 H         1 NAP         0.0000 
     70 H5N        21.5866   28.9281   21.1124 H         1 NAP         0.0000 
     71 H6N        20.6099   27.1098   19.7506 H         1 NAP         0.0000 
@<TRIPOS>BOND
     1    1    2 2    
     2    1    3 1    
     3    1    4 1    
     4    1   23 1    
     5    4    5 1    
     6    5    6 1    
     7    5   49 1    
     8    5   50 1    
     9    6    7 1    
    10    6    8 1    
    11    6   51 1    
    12    7   12 1    
    13    8    9 1    
    14    8   10 1    
    15    8   52 1    
    16   10   11 1    
    17   10   12 1    
    18   10   53 1    
    19   11   45 1    
    20   12   13 1    
    21   12   54 1    
    22   13   14 ar   
    23   13   22 ar   
    24   14   15 ar   
    25   14   55 1    
    26   15   16 ar   
    27   16   17 ar   
    28   16   22 ar   
    29   17   18 1    
    30   17   19 ar   
    31   18   56 1    
    32   18   57 1    
    33   19   20 ar   
    34   20   21 ar   
    35   20   58 1    
    36   21   22 ar   
    37   23   24 1    
    38   24   25 2    
    39   24   26 1    
    40   24   27 1    
    41   27   28 1    
    42   28   29 1    
    43   28   59 1    
    44   28   60 1    
    45   29   30 1    
    46   29   31 1    
    47   29   61 1    
    48   30   35 1    
    49   31   32 1    
    50   31   33 1    
    51   31   62 1    
    52   32   63 1    
    53   33   34 1    
    54   33   35 1    
    55   33   64 1    
    56   34   65 1    
    57   35   36 1    
    58   35   66 1    
    59   36   37 1    
    60   36   44 1    
    61   37   38 2    
    62   37   67 1    
    63   38   39 1    
    64   38   42 1    
    65   39   40 1    
    66   39   41 2    
    67   41   68 1    
    68   42   43 1    
    69   42   69 1    
    70   43   44 2    
    71   43   70 1    
    72   44   71 1    
    73   45   46 2    
    74   45   47 1    
    75   45   48 1    
@<TRIPOS>SUBSTRUCTURE
     1 NAP         1 GROUP             0       ****    0 ROOT    
@<TRIPOS>MOLECULE
NAP
71   75    1
SMALL
USER_CHARGES


@<TRIPOS>ATOM
      1 PA         17.1740   26.1340   12.0400 P.3       1 NAP         0.0000 
      2 O1A        16.0480   25.3140   12.5000 O.co2     1 NAP         0.0000 
      3 O2A        18.4780   26.1140   12.6700 O.co2     1 NAP         0.0000 
      4 O5B        17.3170   25.8890   10.4370 O.3       1 NAP         0.0000 
      5 C5B        17.8130   26.9900    9.4950 C.3       1 NAP         0.0000 
      6 C4B        17.9620   26.1550    8.3450 C.3       1 NAP         0.0000 
      7 O4B        17.8590   27.3510    7.2940 O.3       1 NAP         0.0000 
      8 C3B        18.8400   25.7890    7.5350 C.3       1 NAP         0.0000 
      9 O3B        18.2080   24.5970    7.8390 O.3       1 NAP         0.0000 
     10 C2B        19.2760   25.7510    6.1470 C.3       1 NAP         0.0000 
     11 O2B        18.8830   24.7390    5.4810 O.3       1 NAP         0.0000 
     12 C1B        18.3940   26.8940    5.9880 C.3       1 NAP         0.0000 
     13 N9A        19.2370   28.0900    5.5900 N.pl3     1 NAP         0.0000 
     14 C8A        20.4660   28.6370    6.0110 C.ar      1 NAP         0.0000 
     15 N7A        20.9350   29.5480    5.1920 N.2       1 NAP         0.0000 
     16 C5A        20.0030   29.6240    4.1730 C.ar      1 NAP         0.0000 
     17 C6A        19.9350   30.4020    2.9750 C.ar      1 NAP         0.0000 
     18 N6A        20.8890   31.2620    2.6350 N.pl3     1 NAP         0.0000 
     19 N1A        18.8410   30.2300    2.1530 N.ar      1 NAP         0.0000 
     20 C2A        17.8670   29.3500    2.4800 C.ar      1 NAP         0.0000 
     21 N3A        17.8590   28.5740    3.5790 N.ar      1 NAP         0.0000 
     22 C4A        18.9620   28.7580    4.3950 C.ar      1 NAP         0.0000 
     23 O3         16.4580   27.5660   12.2080 O.3       1 NAP         0.0000 
     24 PN         15.2160   28.0680   13.1530 P.3       1 NAP         0.0000 
     25 O1N        13.9830   27.4170   12.6420 O.2       1 NAP         0.0000 
     26 O2N        15.3080   29.5540   13.0930 O.3       1 NAP         0.0000 
     27 O5D        15.4870   27.6580   14.6850 O.3       1 NAP         0.0000 
     28 C5D        16.5990   28.1690   15.4750 C.3       1 NAP         0.0000 
     29 C4D        17.3950   26.9680   16.0250 C.3       1 NAP         0.0000 
     30 O4D        18.6530   27.3660   16.6140 O.3       1 NAP         0.0000 
     31 C3D        16.6940   26.1930   17.1670 C.3       1 NAP         0.0000 
     32 O3D        17.0850   24.8060   17.2870 O.co2     1 NAP         0.0000 
     33 C2D        17.0930   26.9360   18.3930 C.3       1 NAP         0.0000 
     34 O2D        16.9790   26.2050   19.5880 O.3       1 NAP         0.0000 
     35 C1D        18.5690   27.2430   18.0380 C.3       1 NAP         0.0000 
     36 N1N        19.1250   28.3610   18.8110 N.pl3     1 NAP         0.0000 
     37 C2N        18.5550   29.6410   18.6670 C.2       1 NAP         0.0000 
     38 C3N        19.1410   30.6830   19.4650 C.2       1 NAP         0.0000 
     39 C7N        18.6520   32.0500   19.4140 C.2       1 NAP         0.0000 
     40 O7N        19.1610   32.9430   20.1020 O.co2     1 NAP         0.0000 
     41 N7N        17.6220   32.3900   18.6160 N.2       1 NAP         0.0000 
     42 C4N        20.2220   30.3760   20.3170 C.3       1 NAP         0.0000 
     43 C5N        20.7460   29.1390   20.4350 C.2       1 NAP         0.0000 
     44 C6N        20.2020   28.1290   19.6810 C.2       1 NAP         0.0000 
     45 P2B        19.6640   24.5550    4.0970 P.3       1 NAP         0.0000 
     46 O1X        21.1170   24.3600    4.4040 O.co2     1 NAP         0.0000 
     47 O2X        18.9640   23.4100    3.5430 O.co2     1 NAP         0.0000 
     48 O3X        19.3910   25.7980    3.3810 O.co2     1 NAP         0.0000 
     49 H51A       17.0483   27.7767    9.4157 H         1 NAP         0.0000 
     50 H52A       18.7432   27.4217    9.8931 H         1 NAP         0.0000 
     51 H4B        17.6025   25.1989    8.7533 H         1 NAP         0.0000 
     52 H3B        19.6806   26.4653    7.7495 H         1 NAP         0.0000 
     53 HO3A       17.8041   24.4305    8.8485 H         1 NAP         0.0000 
     54 H2B        20.3163   25.6482    5.8047 H         1 NAP         0.0000 
     55 H1B        17.6138   26.5596    5.2884 H         1 NAP         0.0000 
     56 H8A        21.0250   28.3690    6.9230 H         1 NAP         0.0000 
     57 H61A       21.7626   31.4011    3.2888 H         1 NAP         0.0000 
     58 H62A       20.8052   31.8349    1.6997 H         1 NAP         0.0000 
     59 H2A        17.0080   29.2570    1.7930 H         1 NAP         0.0000 
     60 H51N       17.2459   28.7905   14.8384 H         1 NAP         0.0000 
     61 H52N       16.2101   28.7760   16.3059 H         1 NAP         0.0000 
     62 H4D        17.5751   26.3471   15.1351 H         1 NAP         0.0000 
     63 H3D        15.6083   26.0976   17.0184 H         1 NAP         0.0000 
     64 H2D        16.4146   27.7581   18.6649 H         1 NAP         0.0000 
     65 HO2N       15.9863   25.9158   19.9633 H         1 NAP         0.0000 
     66 H1D        19.2830   26.4453   18.2908 H         1 NAP         0.0000 
     67 H2N        17.7135   29.8692   17.9964 H         1 NAP         0.0000 
     68 H72N       17.2637   33.4298   18.5934 H         1 NAP         0.0000 
     69 H4N        20.6910   31.1590   20.9350 H         1 NAP         0.0000 
     70 H5N        21.5866   28.9281   21.1124 H         1 NAP         0.0000 
     71 H6N        20.6099   27.1098   19.7506 H         1 NAP         0.0000 
@<TRIPOS>BOND
     1    1    2 2    
     2    1    3 1    
     3    1    4 1    
     4    1   23 1    
     5    4    5 1    
     6    5    6 1    
     7    5   49 1    
     8    5   50 1    
     9    6    7 1    
    10    6    8 1    
    11    6   51 1    
    12    7   12 1    
    13    8    9 1    
    14    8   10 1    
    15    8   52 1    
    16    9   53 1    
    17   10   11 1    
    18   10   12 1    
    19   10   54 1    
    20   11   45 1    
    21   12   13 1    
    22   12   55 1    
    23   13   14 ar   
    24   13   22 ar   
    25   14   15 ar   
    26   14   56 1    
    27   15   16 ar   
    28   16   17 ar   
    29   16   22 ar   
    30   17   18 1    
    31   17   19 ar   
    32   18   57 1    
    33   18   58 1    
    34   19   20 ar   
    35   20   21 ar   
    36   20   59 1    
    37   21   22 ar   
    38   23   24 1    
    39   24   25 2    
    40   24   26 1    
    41   24   27 1    
    42   27   28 1    
    43   28   29 1    
    44   28   60 1    
    45   28   61 1    
    46   29   30 1    
    47   29   31 1    
    48   29   62 1    
    49   30   35 1    
    50   31   32 1    
    51   31   33 1    
    52   31   63 1    
    53   33   34 1    
    54   33   35 1    
    55   33   64 1    
    56   34   65 1    
    57   35   36 1    
    58   35   66 1    
    59   36   37 1    
    60   36   44 1    
    61   37   38 2    
    62   37   67 1    
    63   38   39 1    
    64   38   42 1    
    65   39   40 1    
    66   39   41 2    
    67   41   68 1    
    68   42   43 1    
    69   42   69 1    
    70   43   44 2    
    71   43   70 1    
    72   44   71 1    
    73   45   46 2    
    74   45   47 1    
    75   45   48 1    
@<TRIPOS>SUBSTRUCTURE
     1 NAP         1 GROUP             0       ****    0 ROOT    
@<TRIPOS>MOLECULE
NAP
71   75    1
SMALL
USER_CHARGES


@<TRIPOS>ATOM
      1 PA         17.1740   26.1340   12.0400 P.3       1 NAP         0.0000 
      2 O1A        16.0480   25.3140   12.5000 O.co2     1 NAP         0.0000 
      3 O2A        18.4780   26.1140   12.6700 O.co2     1 NAP         0.0000 
      4 O5B        17.3170   25.8890   10.4370 O.3       1 NAP         0.0000 
      5 C5B        17.8130   26.9900    9.4950 C.3       1 NAP         0.0000 
      6 C4B        17.9620   26.1550    8.3450 C.3       1 NAP         0.0000 
      7 O4B        17.8590   27.3510    7.2940 O.3       1 NAP         0.0000 
      8 C3B        18.8400   25.7890    7.5350 C.3       1 NAP         0.0000 
      9 O3B        18.2080   24.5970    7.8390 O.3       1 NAP         0.0000 
     10 C2B        19.2760   25.7510    6.1470 C.3       1 NAP         0.0000 
     11 O2B        18.8830   24.7390    5.4810 O.3       1 NAP         0.0000 
     12 C1B        18.3940   26.8940    5.9880 C.3       1 NAP         0.0000 
     13 N9A        19.2370   28.0900    5.5900 N.pl3     1 NAP         0.0000 
     14 C8A        20.4660   28.6370    6.0110 C.ar      1 NAP         0.0000 
     15 N7A        20.9350   29.5480    5.1920 N.2       1 NAP         0.0000 
     16 C5A        20.0030   29.6240    4.1730 C.ar      1 NAP         0.0000 
     17 C6A        19.9350   30.4020    2.9750 C.ar      1 NAP         0.0000 
     18 N6A        20.8890   31.2620    2.6350 N.pl3     1 NAP         0.0000 
     19 N1A        18.8410   30.2300    2.1530 N.ar      1 NAP         0.0000 
     20 C2A        17.8670   29.3500    2.4800 C.ar      1 NAP         0.0000 
     21 N3A        17.8590   28.5740    3.5790 N.ar      1 NAP         0.0000 
     22 C4A        18.9620   28.7580    4.3950 C.ar      1 NAP         0.0000 
     23 O3         16.4580   27.5660   12.2080 O.3       1 NAP         0.0000 
     24 PN         15.2160   28.0680   13.1530 P.3       1 NAP         0.0000 
     25 O1N        13.9830   27.4170   12.6420 O.2       1 NAP         0.0000 
     26 O2N        15.3080   29.5540   13.0930 O.3       1 NAP         0.0000 
     27 O5D        15.4870   27.6580   14.6850 O.3       1 NAP         0.0000 
     28 C5D        16.5990   28.1690   15.4750 C.3       1 NAP         0.0000 
     29 C4D        17.3950   26.9680   16.0250 C.3       1 NAP         0.0000 
     30 O4D        18.6530   27.3660   16.6140 O.3       1 NAP         0.0000 
     31 C3D        16.6940   26.1930   17.1670 C.3       1 NAP         0.0000 
     32 O3D        17.0850   24.8060   17.2870 O.co2     1 NAP         0.0000 
     33 C2D        17.0930   26.9360   18.3930 C.3       1 NAP         0.0000 
     34 O2D        16.9790   26.2050   19.5880 O.3       1 NAP         0.0000 
     35 C1D        18.5690   27.2430   18.0380 C.3       1 NAP         0.0000 
     36 N1N        19.1250   28.3610   18.8110 N.pl3     1 NAP         0.0000 
     37 C2N        18.5550   29.6410   18.6670 C.2       1 NAP         0.0000 
     38 C3N        19.1410   30.6830   19.4650 C.2       1 NAP         0.0000 
     39 C7N        18.6520   32.0500   19.4140 C.2       1 NAP         0.0000 
     40 O7N        19.1610   32.9430   20.1020 O.co2     1 NAP         0.0000 
     41 N7N        17.6220   32.3900   18.6160 N.2       1 NAP         0.0000 
     42 C4N        20.2220   30.3760   20.3170 C.3       1 NAP         0.0000 
     43 C5N        20.7460   29.1390   20.4350 C.2       1 NAP         0.0000 
     44 C6N        20.2020   28.1290   19.6810 C.2       1 NAP         0.0000 
     45 P2B        19.6640   24.5550    4.0970 P.3       1 NAP         0.0000 
     46 O1X        21.1170   24.3600    4.4040 O.co2     1 NAP         0.0000 
     47 O2X        18.9640   23.4100    3.5430 O.co2     1 NAP         0.0000 
     48 O3X        19.3910   25.7980    3.3810 O.co2     1 NAP         0.0000 
     49 H51A       17.0483   27.7767    9.4157 H         1 NAP         0.0000 
     50 H52A       18.7432   27.4217    9.8931 H         1 NAP         0.0000 
     51 H4B        17.6025   25.1989    8.7533 H         1 NAP         0.0000 
     52 H3B        19.6806   26.4653    7.7495 H         1 NAP         0.0000 
     53 HO3A       17.8041   24.4305    8.8485 H         1 NAP         0.0000 
     54 H2B        20.3163   25.6482    5.8047 H         1 NAP         0.0000 
     55 H1B        17.6138   26.5596    5.2884 H         1 NAP         0.0000 
     56 H8A        21.0250   28.3690    6.9230 H         1 NAP         0.0000 
     57 H61A       21.7626   31.4011    3.2888 H         1 NAP         0.0000 
     58 H62A       20.8052   31.8349    1.6997 H         1 NAP         0.0000 
     59 H2A        17.0080   29.2570    1.7930 H         1 NAP         0.0000 
     60 H51N       17.2459   28.7905   14.8384 H         1 NAP         0.0000 
     61 H52N       16.2101   28.7760   16.3059 H         1 NAP         0.0000 
     62 H4D        17.5751   26.3471   15.1351 H         1 NAP         0.0000 
     63 H3D        15.6083   26.0976   17.0184 H         1 NAP         0.0000 
     64 H2D        16.4146   27.7581   18.6649 H         1 NAP         0.0000 
     65 HO2N       15.9863   25.9158   19.9633 H         1 NAP         0.0000 
     66 H1D        19.2830   26.4453   18.2908 H         1 NAP         0.0000 
     67 H2N        17.7135   29.8692   17.9964 H         1 NAP         0.0000 
     68 H71N       17.1389   31.6280   17.9867 H         1 NAP         0.0000 
     69 H4N        20.6910   31.1590   20.9350 H         1 NAP         0.0000 
     70 H5N        21.5866   28.9281   21.1124 H         1 NAP         0.0000 
     71 H6N        20.6099   27.1098   19.7506 H         1 NAP         0.0000 
@<TRIPOS>BOND
     1    1    2 2    
     2    1    3 1    
     3    1    4 1    
     4    1   23 1    
     5    4    5 1    
     6    5    6 1    
     7    5   49 1    
     8    5   50 1    
     9    6    7 1    
    10    6    8 1    
    11    6   51 1    
    12    7   12 1    
    13    8    9 1    
    14    8   10 1    
    15    8   52 1    
    16    9   53 1    
    17   10   11 1    
    18   10   12 1    
    19   10   54 1    
    20   11   45 1    
    21   12   13 1    
    22   12   55 1    
    23   13   14 ar   
    24   13   22 ar   
    25   14   15 ar   
    26   14   56 1    
    27   15   16 ar   
    28   16   17 ar   
    29   16   22 ar   
    30   17   18 1    
    31   17   19 ar   
    32   18   57 1    
    33   18   58 1    
    34   19   20 ar   
    35   20   21 ar   
    36   20   59 1    
    37   21   22 ar   
    38   23   24 1    
    39   24   25 2    
    40   24   26 1    
    41   24   27 1    
    42   27   28 1    
    43   28   29 1    
    44   28   60 1    
    45   28   61 1    
    46   29   30 1    
    47   29   31 1    
    48   29   62 1    
    49   30   35 1    
    50   31   32 1    
    51   31   33 1    
    52   31   63 1    
    53   33   34 1    
    54   33   35 1    
    55   33   64 1    
    56   34   65 1    
    57   35   36 1    
    58   35   66 1    
    59   36   37 1    
    60   36   44 1    
    61   37   38 2    
    62   37   67 1    
    63   38   39 1    
    64   38   42 1    
    65   39   40 1    
    66   39   41 2    
    67   41   68 1    
    68   42   43 1    
    69   42   69 1    
    70   43   44 2    
    71   43   70 1    
    72   44   71 1    
    73   45   46 2    
    74   45   47 1    
    75   45   48 1    
@<TRIPOS>SUBSTRUCTURE
     1 NAP         1 GROUP             0       ****    0 ROOT    
@<TRIPOS>MOLECULE
NAP
71   75    1
SMALL
USER_CHARGES


@<TRIPOS>ATOM
      1 PA         17.1740   26.1340   12.0400 P.3       1 NAP         0.0000 
      2 O1A        16.0480   25.3140   12.5000 O.co2     1 NAP         0.0000 
      3 O2A        18.4780   26.1140   12.6700 O.co2     1 NAP         0.0000 
      4 O5B        17.3170   25.8890   10.4370 O.3       1 NAP         0.0000 
      5 C5B        17.8130   26.9900    9.4950 C.3       1 NAP         0.0000 
      6 C4B        17.9620   26.1550    8.3450 C.3       1 NAP         0.0000 
      7 O4B        17.8590   27.3510    7.2940 O.3       1 NAP         0.0000 
      8 C3B        18.8400   25.7890    7.5350 C.3       1 NAP         0.0000 
      9 O3B        18.2080   24.5970    7.8390 O.co2     1 NAP         0.0000 
     10 C2B        19.2760   25.7510    6.1470 C.3       1 NAP         0.0000 
     11 O2B        18.8830   24.7390    5.4810 O.3       1 NAP         0.0000 
     12 C1B        18.3940   26.8940    5.9880 C.3       1 NAP         0.0000 
     13 N9A        19.2370   28.0900    5.5900 N.pl3     1 NAP         0.0000 
     14 C8A        20.4660   28.6370    6.0110 C.ar      1 NAP         0.0000 
     15 N7A        20.9350   29.5480    5.1920 N.2       1 NAP         0.0000 
     16 C5A        20.0030   29.6240    4.1730 C.ar      1 NAP         0.0000 
     17 C6A        19.9350   30.4020    2.9750 C.ar      1 NAP         0.0000 
     18 N6A        20.8890   31.2620    2.6350 N.pl3     1 NAP         0.0000 
     19 N1A        18.8410   30.2300    2.1530 N.ar      1 NAP         0.0000 
     20 C2A        17.8670   29.3500    2.4800 C.ar      1 NAP         0.0000 
     21 N3A        17.8590   28.5740    3.5790 N.ar      1 NAP         0.0000 
     22 C4A        18.9620   28.7580    4.3950 C.ar      1 NAP         0.0000 
     23 O3         16.4580   27.5660   12.2080 O.3       1 NAP         0.0000 
     24 PN         15.2160   28.0680   13.1530 P.3       1 NAP         0.0000 
     25 O1N        13.9830   27.4170   12.6420 O.2       1 NAP         0.0000 
     26 O2N        15.3080   29.5540   13.0930 O.3       1 NAP         0.0000 
     27 O5D        15.4870   27.6580   14.6850 O.3       1 NAP         0.0000 
     28 C5D        16.5990   28.1690   15.4750 C.3       1 NAP         0.0000 
     29 C4D        17.3950   26.9680   16.0250 C.3       1 NAP         0.0000 
     30 O4D        18.6530   27.3660   16.6140 O.3       1 NAP         0.0000 
     31 C3D        16.6940   26.1930   17.1670 C.3       1 NAP         0.0000 
     32 O3D        17.0850   24.8060   17.2870 O.co2     1 NAP         0.0000 
     33 C2D        17.0930   26.9360   18.3930 C.3       1 NAP         0.0000 
     34 O2D        16.9790   26.2050   19.5880 O.3       1 NAP         0.0000 
     35 C1D        18.5690   27.2430   18.0380 C.3       1 NAP         0.0000 
     36 N1N        19.1250   28.3610   18.8110 N.pl3     1 NAP         0.0000 
     37 C2N        18.5550   29.6410   18.6670 C.2       1 NAP         0.0000 
     38 C3N        19.1410   30.6830   19.4650 C.2       1 NAP         0.0000 
     39 C7N        18.6520   32.0500   19.4140 C.2       1 NAP         0.0000 
     40 O7N        19.1610   32.9430   20.1020 O.2       1 NAP         0.0000 
     41 N7N        17.6220   32.3900   18.6160 N.am      1 NAP         0.0000 
     42 C4N        20.2220   30.3760   20.3170 C.3       1 NAP         0.0000 
     43 C5N        20.7460   29.1390   20.4350 C.2       1 NAP         0.0000 
     44 C6N        20.2020   28.1290   19.6810 C.2       1 NAP         0.0000 
     45 P2B        19.6640   24.5550    4.0970 P.3       1 NAP         0.0000 
     46 O1X        21.1170   24.3600    4.4040 O.co2     1 NAP         0.0000 
     47 O2X        18.9640   23.4100    3.5430 O.co2     1 NAP         0.0000 
     48 O3X        19.3910   25.7980    3.3810 O.co2     1 NAP         0.0000 
     49 H51A       17.0483   27.7767    9.4157 H         1 NAP         0.0000 
     50 H52A       18.7432   27.4217    9.8931 H         1 NAP         0.0000 
     51 H4B        17.6025   25.1989    8.7533 H         1 NAP         0.0000 
     52 H3B        19.6806   26.4653    7.7495 H         1 NAP         0.0000 
     53 H2B        20.3163   25.6482    5.8047 H         1 NAP         0.0000 
     54 H1B        17.6138   26.5596    5.2884 H         1 NAP         0.0000 
     55 H8A        21.0250   28.3690    6.9230 H         1 NAP         0.0000 
     56 H61A       21.7626   31.4011    3.2888 H         1 NAP         0.0000 
     57 H62A       20.8052   31.8349    1.6997 H         1 NAP         0.0000 
     58 H2A        17.0080   29.2570    1.7930 H         1 NAP         0.0000 
     59 H51N       17.2459   28.7905   14.8384 H         1 NAP         0.0000 
     60 H52N       16.2101   28.7760   16.3059 H         1 NAP         0.0000 
     61 H4D        17.5751   26.3471   15.1351 H         1 NAP         0.0000 
     62 H3D        15.6083   26.0976   17.0184 H         1 NAP         0.0000 
     63 H2D        16.4146   27.7581   18.6649 H         1 NAP         0.0000 
     64 HO2N       15.9863   25.9158   19.9633 H         1 NAP         0.0000 
     65 H1D        19.2830   26.4453   18.2908 H         1 NAP         0.0000 
     66 H2N        17.7135   29.8692   17.9964 H         1 NAP         0.0000 
     67 H71N       17.1389   31.6280   17.9867 H         1 NAP         0.0000 
     68 H72N       17.2637   33.4298   18.5934 H         1 NAP         0.0000 
     69 H4N        20.6910   31.1590   20.9350 H         1 NAP         0.0000 
     70 H5N        21.5866   28.9281   21.1124 H         1 NAP         0.0000 
     71 H6N        20.6099   27.1098   19.7506 H         1 NAP         0.0000 
@<TRIPOS>BOND
     1    1    2 2    
     2    1    3 1    
     3    1    4 1    
     4    1   23 1    
     5    4    5 1    
     6    5    6 1    
     7    5   49 1    
     8    5   50 1    
     9    6    7 1    
    10    6    8 1    
    11    6   51 1    
    12    7   12 1    
    13    8    9 1    
    14    8   10 1    
    15    8   52 1    
    16   10   11 1    
    17   10   12 1    
    18   10   53 1    
    19   11   45 1    
    20   12   13 1    
    21   12   54 1    
    22   13   14 ar   
    23   13   22 ar   
    24   14   15 ar   
    25   14   55 1    
    26   15   16 ar   
    27   16   17 ar   
    28   16   22 ar   
    29   17   18 1    
    30   17   19 ar   
    31   18   56 1    
    32   18   57 1    
    33   19   20 ar   
    34   20   21 ar   
    35   20   58 1    
    36   21   22 ar   
    37   23   24 1    
    38   24   25 2    
    39   24   26 1    
    40   24   27 1    
    41   27   28 1    
    42   28   29 1    
    43   28   59 1    
    44   28   60 1    
    45   29   30 1    
    46   29   31 1    
    47   29   61 1    
    48   30   35 1    
    49   31   32 1    
    50   31   33 1    
    51   31   62 1    
    52   33   34 1    
    53   33   35 1    
    54   33   63 1    
    55   34   64 1    
    56   35   36 1    
    57   35   65 1    
    58   36   37 1    
    59   36   44 1    
    60   37   38 2    
    61   37   66 1    
    62   38   39 1    
    63   38   42 1    
    64   39   40 2    
    65   39   41 am   BACKBONE|DICT|INTERRES
    66   41   67 1    
    67   41   68 1    
    68   42   43 1    
    69   42   69 1    
    70   43   44 2    
    71   43   70 1    
    72   44   71 1    
    73   45   46 2    
    74   45   47 1    
    75   45   48 1    
@<TRIPOS>SUBSTRUCTURE
     1 NAP         1 GROUP             0       ****    0 ROOT    
@<TRIPOS>MOLECULE
NAP
74   78    1
SMALL
USER_CHARGES


@<TRIPOS>ATOM
      1 PA         17.1740   26.1340   12.0400 P.3       1 NAP         0.0000 
      2 O1A        16.0480   25.3140   12.5000 O.co2     1 NAP         0.0000 
      3 O2A        18.4780   26.1140   12.6700 O.co2     1 NAP         0.0000 
      4 O5B        17.3170   25.8890   10.4370 O.3       1 NAP         0.0000 
      5 C5B        17.8130   26.9900    9.4950 C.3       1 NAP         0.0000 
      6 C4B        17.9620   26.1550    8.3450 C.3       1 NAP         0.0000 
      7 O4B        17.8590   27.3510    7.2940 O.3       1 NAP         0.0000 
      8 C3B        18.8400   25.7890    7.5350 C.3       1 NAP         0.0000 
      9 O3B        18.2080   24.5970    7.8390 O.3       1 NAP         0.0000 
     10 C2B        19.2760   25.7510    6.1470 C.3       1 NAP         0.0000 
     11 O2B        18.8830   24.7390    5.4810 O.3       1 NAP         0.0000 
     12 C1B        18.3940   26.8940    5.9880 C.3       1 NAP         0.0000 
     13 N9A        19.2370   28.0900    5.5900 N.pl3     1 NAP         0.0000 
     14 C8A        20.4660   28.6370    6.0110 C.ar      1 NAP         0.0000 
     15 N7A        20.9350   29.5480    5.1920 N.2       1 NAP         0.0000 
     16 C5A        20.0030   29.6240    4.1730 C.ar      1 NAP         0.0000 
     17 C6A        19.9350   30.4020    2.9750 C.ar      1 NAP         0.0000 
     18 N6A        20.8890   31.2620    2.6350 N.pl3     1 NAP         0.0000 
     19 N1A        18.8410   30.2300    2.1530 N.ar      1 NAP         0.0000 
     20 C2A        17.8670   29.3500    2.4800 C.ar      1 NAP         0.0000 
     21 N3A        17.8590   28.5740    3.5790 N.ar      1 NAP         0.0000 
     22 C4A        18.9620   28.7580    4.3950 C.ar      1 NAP         0.0000 
     23 O3         16.4580   27.5660   12.2080 O.3       1 NAP         0.0000 
     24 PN         15.2160   28.0680   13.1530 P.3       1 NAP         0.0000 
     25 O1N        13.9830   27.4170   12.6420 O.2       1 NAP         0.0000 
     26 O2N        15.3080   29.5540   13.0930 O.3       1 NAP         0.0000 
     27 O5D        15.4870   27.6580   14.6850 O.3       1 NAP         0.0000 
     28 C5D        16.5990   28.1690   15.4750 C.3       1 NAP         0.0000 
     29 C4D        17.3950   26.9680   16.0250 C.3       1 NAP         0.0000 
     30 O4D        18.6530   27.3660   16.6140 O.3       1 NAP         0.0000 
     31 C3D        16.6940   26.1930   17.1670 C.3       1 NAP         0.0000 
     32 O3D        17.0850   24.8060   17.2870 O.3       1 NAP         0.0000 
     33 C2D        17.0930   26.9360   18.3930 C.3       1 NAP         0.0000 
     34 O2D        16.9790   26.2050   19.5880 O.3       1 NAP         0.0000 
     35 C1D        18.5690   27.2430   18.0380 C.3       1 NAP         0.0000 
     36 N1N        19.1250   28.3610   18.8110 N.pl3     1 NAP         0.0000 
     37 C2N        18.5550   29.6410   18.6670 C.2       1 NAP         0.0000 
     38 C3N        19.1410   30.6830   19.4650 C.2       1 NAP         0.0000 
     39 C7N        18.6520   32.0500   19.4140 C.2       1 NAP         0.0000 
     40 O7N        19.1610   32.9430   20.1020 O.2       1 NAP         0.0000 
     41 N7N        17.6220   32.3900   18.6160 N.am      1 NAP         0.0000 
     42 C4N        20.2220   30.3760   20.3170 C.3       1 NAP         0.0000 
     43 C5N        20.7460   29.1390   20.4350 C.2       1 NAP         0.0000 
     44 C6N        20.2020   28.1290   19.6810 C.2       1 NAP         0.0000 
     45 P2B        19.6640   24.5550    4.0970 P.3       1 NAP         0.0000 
     46 O1X        21.1170   24.3600    4.4040 O.co2     1 NAP         0.0000 
     47 O2X        18.9640   23.4100    3.5430 O.co2     1 NAP         0.0000 
     48 O3X        19.3910   25.7980    3.3810 O.3       1 NAP         0.0000 
     49 H51A       17.0483   27.7767    9.4157 H         1 NAP         0.0000 
     50 H52A       18.7432   27.4217    9.8931 H         1 NAP         0.0000 
     51 H4B        17.6025   25.1989    8.7533 H         1 NAP         0.0000 
     52 H3B        19.6806   26.4653    7.7495 H         1 NAP         0.0000 
     53 HO3A       17.8041   24.4305    8.8485 H         1 NAP         0.0000 
     54 H2B        20.3163   25.6482    5.8047 H         1 NAP         0.0000 
     55 H1B        17.6138   26.5596    5.2884 H         1 NAP         0.0000 
     56 H8A        21.0250   28.3690    6.9230 H         1 NAP         0.0000 
     57 H61A       21.7626   31.4011    3.2888 H         1 NAP         0.0000 
     58 H62A       20.8052   31.8349    1.6997 H         1 NAP         0.0000 
     59 H2A        17.0080   29.2570    1.7930 H         1 NAP         0.0000 
     60 H51N       17.2459   28.7905   14.8384 H         1 NAP         0.0000 
     61 H52N       16.2101   28.7760   16.3059 H         1 NAP         0.0000 
     62 H4D        17.5751   26.3471   15.1351 H         1 NAP         0.0000 
     63 H3D        15.6083   26.0976   17.0184 H         1 NAP         0.0000 
     64 HO3N       16.8698   24.1013   16.4703 H         1 NAP         0.0000 
     65 H2D        16.4146   27.7581   18.6649 H         1 NAP         0.0000 
     66 HO2N       15.9863   25.9158   19.9633 H         1 NAP         0.0000 
     67 H1D        19.2830   26.4453   18.2908 H         1 NAP         0.0000 
     68 H2N        17.7135   29.8692   17.9964 H         1 NAP         0.0000 
     69 H71N       17.1389   31.6280   17.9867 H         1 NAP         0.0000 
     70 H72N       17.2637   33.4298   18.5934 H         1 NAP         0.0000 
     71 H4N        20.6910   31.1590   20.9350 H         1 NAP         0.0000 
     72 H5N        21.5866   28.9281   21.1124 H         1 NAP         0.0000 
     73 H6N        20.6099   27.1098   19.7506 H         1 NAP         0.0000 
     74 HOP3       19.8643   26.7359    3.7071 H         1 NAP         0.0000 
@<TRIPOS>BOND
     1    1    2 2    
     2    1    3 1    
     3    1    4 1    
     4    1   23 1    
     5    4    5 1    
     6    5    6 1    
     7    5   49 1    
     8    5   50 1    
     9    6    7 1    
    10    6    8 1    
    11    6   51 1    
    12    7   12 1    
    13    8    9 1    
    14    8   10 1    
    15    8   52 1    
    16    9   53 1    
    17   10   11 1    
    18   10   12 1    
    19   10   54 1    
    20   11   45 1    
    21   12   13 1    
    22   12   55 1    
    23   13   14 ar   
    24   13   22 ar   
    25   14   15 ar   
    26   14   56 1    
    27   15   16 ar   
    28   16   17 ar   
    29   16   22 ar   
    30   17   18 1    
    31   17   19 ar   
    32   18   57 1    
    33   18   58 1    
    34   19   20 ar   
    35   20   21 ar   
    36   20   59 1    
    37   21   22 ar   
    38   23   24 1    
    39   24   25 2    
    40   24   26 1    
    41   24   27 1    
    42   27   28 1    
    43   28   29 1    
    44   28   60 1    
    45   28   61 1    
    46   29   30 1    
    47   29   31 1    
    48   29   62 1    
    49   30   35 1    
    50   31   32 1    
    51   31   33 1    
    52   31   63 1    
    53   32   64 1    
    54   33   34 1    
    55   33   35 1    
    56   33   65 1    
    57   34   66 1    
    58   35   36 1    
    59   35   67 1    
    60   36   37 1    
    61   36   44 1    
    62   37   38 2    
    63   37   68 1    
    64   38   39 1    
    65   38   42 1    
    66   39   40 2    
    67   39   41 am   BACKBONE|DICT|INTERRES
    68   41   69 1    
    69   41   70 1    
    70   42   43 1    
    71   42   71 1    
    72   43   44 2    
    73   43   72 1    
    74   44   73 1    
    75   45   46 2    
    76   45   47 1    
    77   45   48 1    
    78   48   74 1    
@<TRIPOS>SUBSTRUCTURE
     1 NAP         1 GROUP             0       ****    0 ROOT    
