@<TRIPOS>MOLECULE
SF4
12   16    1
SMALL
USER_CHARGES


@<TRIPOS>ATOM
      1 FE1        40.9710   -0.0190   22.6690 Any       1 SF4         0.0000 
      2 FE2        39.5560    2.3190   22.8040 Any       1 SF4         0.0000 
      3 FE3        42.0770    2.1610   23.8610 Any       1 SF4         0.0000 
      4 FE4        41.7840    2.1350   21.1450 Any       1 SF4         0.0000 
      5 S1         41.2800    3.9450   22.6080 S.3       1 SF4         0.0000 
      6 S2         43.1720    0.7840   22.3460 S.3       1 SF4         0.0000 
      7 S3         39.7220    0.8750   20.8270 S.3       1 SF4         0.0000 
      8 S4         40.1410    1.0600   24.5750 S.3       1 SF4         0.0000 
      9 H          41.3688    5.0414   22.6109 H         1 SF4         0.0000 
     10 H          44.1815    0.3691   22.2087 H         1 SF4         0.0000 
     11 H          39.0933    0.5132   20.0000 H         1 SF4         0.0000 
     12 H          39.6676    0.7819   25.5282 H         1 SF4         0.0000 
@<TRIPOS>BOND
     1    1    6 1    
     2    1    7 1    
     3    1    8 1    
     4    2    5 1    
     5    2    7 1    
     6    2    8 1    
     7    3    5 1    
     8    3    6 1    
     9    3    8 1    
    10    4    5 1    
    11    4    6 1    
    12    4    7 1    
    13    5    9 1    
    14    6   10 1    
    15    7   11 1    
    16    8   12 1    
@<TRIPOS>SUBSTRUCTURE
     1 SF4         1 GROUP             0       ****    0 ROOT    
