@<TRIPOS>MOLECULE
AMP
   37    39     1     0     0
SMALL
NO_CHARGES

@<TRIPOS>ATOM
      1  P          8.0430   39.6860   18.8130 P.3       1 AMP         0.0000
      2  O1P        7.7740   40.6370   19.9950 O.2       1 AMP         0.0000
      3  O2P        6.8830   38.7840   18.6430 O.3       1 AMP         0.0000
      4  O3P        9.3160   38.8560   19.0920 O.3       1 AMP         0.0000
      5  O5'        8.2900   40.5340   17.4630 O.3       1 AMP         0.0000
      6  C5'        9.2750   41.5450   17.4120 C.3       1 AMP         0.0000
      7  C4'        9.9220   41.6170   16.0320 C.3       1 AMP         0.0000
      8  O4'       10.6260   40.4170   15.7520 O.3       1 AMP         0.0000
      9  C3'        8.8990   41.8150   14.9230 C.3       1 AMP         0.0000
     10  O3'        9.2380   42.9330   14.1330 O.3       1 AMP         0.0000
     11  C2'        8.9330   40.5290   14.1140 C.3       1 AMP         0.0000
     12  O2'        8.9320   40.7810   12.7260 O.3       1 AMP         0.0000
     13  C1'       10.2200   39.8280   14.5300 C.3       1 AMP         0.0000
     14  N9        10.0930   38.3690   14.7560 N.pl3     1 AMP         0.0000
     15  C8         9.3770   37.7670   15.7530 C.ar      1 AMP         0.0000
     16  N7         9.4950   36.4180   15.6450 N.ar      1 AMP         0.0000
     17  C5        10.2870   36.1600   14.5860 C.ar      1 AMP         0.0000
     18  C6        10.7070   34.9510   14.0630 C.ar      1 AMP         0.0000
     19  N6        10.3370   33.8060   14.6270 N.pl3     1 AMP         0.0000
     20  N1        11.5510   34.9950   12.9590 N.ar      1 AMP         0.0000
     21  C2        11.9150   36.1950   12.3750 C.ar      1 AMP         0.0000
     22  N3        11.4880   37.4030   12.9020 N.ar      1 AMP         0.0000
     23  C4        10.6720   37.3690   14.0010 C.ar      1 AMP         0.0000
     24 HOP2        6.2250   38.9860   19.2980 H         1 AMP         0.0000
     25 HOP3        9.6750   39.1010   19.9370 H         1 AMP         0.0000
     26 H5'1        8.8070   42.5140   17.6390 H         1 AMP         0.0000
     27 H5'2       10.0510   41.3280   18.1610 H         1 AMP         0.0000
     28  H4'       10.6180   42.4690   16.0190 H         1 AMP         0.0000
     29  H3'        7.9010   41.9380   15.3680 H         1 AMP         0.0000
     30 HO3'        8.5910   43.0440   13.4460 H         1 AMP         0.0000
     31  H2'        8.0740   39.9020   14.3960 H         1 AMP         0.0000
     32 HO2'        8.9540   39.9570   12.2540 H         1 AMP         0.0000
     33  H1'       10.9810   40.0060   13.7560 H         1 AMP         0.0000
     34  H8         8.8060   38.2840   16.5100 H         1 AMP         0.0000
     35 HN61       10.7550   33.0420   14.1360 H         1 AMP         0.0000
     36 HN62       10.6360   33.7930   15.5810 H         1 AMP         0.0000
     37  H2        12.5410   36.1900   11.4950 H         1 AMP         0.0000
@<TRIPOS>BOND
     1    1    2 2
     2    1    3 1
     3    1    4 1
     4    1    5 1
     5    3   24 1
     6    4   25 1
     7    5    6 1
     8    6    7 1
     9    6   26 1
    10    6   27 1
    11    7    8 1
    12    7    9 1
    13    7   28 1
    14    8   13 1
    15    9   10 1
    16    9   11 1
    17    9   29 1
    18   10   30 1
    19   11   12 1
    20   11   13 1
    21   11   31 1
    22   12   32 1
    23   13   14 1
    24   13   33 1
    25   14   15 ar
    26   14   23 ar
    27   15   16 ar
    28   15   34 1
    29   16   17 ar
    30   17   18 ar
    31   17   23 ar
    32   18   19 1
    33   18   20 ar
    34   19   35 1
    35   19   36 1
    36   20   21 ar
    37   21   22 ar
    38   21   37 1
    39   22   23 ar
@<TRIPOS>SUBSTRUCTURE
     1 AMP         1 GROUP 0 A     ****
