@<TRIPOS>MOLECULE
ADP
   42    44     1     0     0
SMALL
NO_CHARGES

@<TRIPOS>ATOM
      1  PB        44.6690    2.9280   38.5560 P.3       1 ADP         0.0000
      2  O1B       46.0210    3.5080   38.3170 O.2       1 ADP         0.0000
      3  O2B       43.7090    3.8120   37.9050 O.3       1 ADP         0.0000
      4  O3B       44.4590    1.4490   38.3820 O.3       1 ADP         0.0000
      5  PA        43.2300    2.9550   41.1100 P.3       1 ADP         0.0000
      6  O1A       41.9750    3.4970   40.5730 O.2       1 ADP         0.0000
      7  O2A       42.9620    1.5010   41.4010 O.3       1 ADP         0.0000
      8  O3A       44.5220    3.2100   40.2120 O.3       1 ADP         0.0000
      9  O5'       43.4620    3.8320   42.4070 O.3       1 ADP         0.0000
     10  C5'       43.7350    5.2460   42.3350 C.3       1 ADP         0.0000
     11  C4'       43.0950    5.8100   43.6260 C.3       1 ADP         0.0000
     12  O4'       43.7640    5.2610   44.7790 O.3       1 ADP         0.0000
     13  C3'       43.3370    7.3250   43.6170 C.3       1 ADP         0.0000
     14  O3'       42.0560    7.9880   43.5600 O.3       1 ADP         0.0000
     15  C2'       43.9460    7.5930   45.0830 C.3       1 ADP         0.0000
     16  O2'       43.5540    8.7260   45.8770 O.3       1 ADP         0.0000
     17  C1'       43.6130    6.2750   45.8130 C.3       1 ADP         0.0000
     18  N9        44.3750    5.7810   46.9910 N.pl3     1 ADP         0.0000
     19  C8        45.7110    5.4860   47.0620 C.ar      1 ADP         0.0000
     20  N7        46.2020    5.3790   48.2820 N.ar      1 ADP         0.0000
     21  C5        45.0670    5.5970   49.0640 C.ar      1 ADP         0.0000
     22  C6        44.8830    5.6230   50.4990 C.ar      1 ADP         0.0000
     23  N6        45.9120    5.4330   51.3250 N.pl3     1 ADP         0.0000
     24  N1        43.6260    5.8520   50.8960 N.ar      1 ADP         0.0000
     25  C2        42.5900    6.0760   50.0670 C.ar      1 ADP         0.0000
     26  N3        42.6750    6.0670   48.7350 N.ar      1 ADP         0.0000
     27  C4        43.9510    5.8210   48.3040 C.ar      1 ADP         0.0000
     28 HOB2       42.8470    3.4420   38.0570 H         1 ADP         0.0000
     29 HOB3       43.5970    1.0790   38.5340 H         1 ADP         0.0000
     30 HOA2       43.7730    1.1500   41.7480 H         1 ADP         0.0000
     31 H5'1       44.8120    5.5000   42.2060 H         1 ADP         0.0000
     32 H5'2       43.3850    5.7350   41.3960 H         1 ADP         0.0000
     33  H4'       42.0100    5.5560   43.6680 H         1 ADP         0.0000
     34  H3'       43.9780    7.6720   42.7730 H         1 ADP         0.0000
     35 HO3'       42.2050    8.9260   43.5540 H         1 ADP         0.0000
     36  H2'       45.0140    7.8790   44.9410 H         1 ADP         0.0000
     37 HO2'       43.9130    8.8840   46.7420 H         1 ADP         0.0000
     38  H1'       42.6210    6.4820   46.2790 H         1 ADP         0.0000
     39  H8        46.3580    5.3410   46.1810 H         1 ADP         0.0000
     40 HN61       45.7820    5.4510   52.3360 H         1 ADP         0.0000
     41 HN62       46.6390    6.1070   51.0860 H         1 ADP         0.0000
     42  H2        41.6010    6.2810   50.5100 H         1 ADP         0.0000
@<TRIPOS>BOND
     1    1    2 2
     2    1    3 1
     3    1    4 1
     4    1    8 1
     5    3   28 1
     6    4   29 1
     7    5    6 2
     8    5    7 1
     9    5    8 1
    10    5    9 1
    11    7   30 1
    12    9   10 1
    13   10   11 1
    14   10   31 1
    15   10   32 1
    16   11   12 1
    17   11   13 1
    18   11   33 1
    19   12   17 1
    20   13   14 1
    21   13   15 1
    22   13   34 1
    23   14   35 1
    24   15   16 1
    25   15   17 1
    26   15   36 1
    27   16   37 1
    28   17   18 1
    29   17   38 1
    30   18   19 ar
    31   18   27 ar
    32   19   20 ar
    33   19   39 1
    34   20   21 ar
    35   21   22 ar
    36   21   27 ar
    37   22   23 1
    38   22   24 ar
    39   23   40 1
    40   23   41 1
    41   24   25 ar
    42   25   26 ar
    43   25   42 1
    44   26   27 ar
@<TRIPOS>SUBSTRUCTURE
     1 ADP         1 GROUP 0 A     ****
