@<TRIPOS>MOLECULE
[[[5-(2-amino-6-oxo-1~{H}-purin-9-yl)-3,4-dihydroxy-tetrahydrofuran-2-yl]methoxy-oxido-phosphoryl]oxy-oxido-phosphoryl] phosphate
   44    46     1     0     0
SMALL
USER_CHARGES

@<TRIPOS>ATOM
      1 PG          4.5660   31.3910   21.6350 P.3       1 GTP         1.3829
      2 O1G         4.6130   31.9070   23.0690 O.2       1 GTP        -0.9757
      3 O2G         3.8920   32.3190   20.6310 O.3       1 GTP        -0.9757
      4 O3G         4.1430   30.0120   21.6130 O.3       1 GTP        -0.9757
      5 O3B         6.1600   31.3600   21.2280 O.3       1 GTP        -0.7389
      6 PB          6.8770   31.2020   19.7450 P.3       1 GTP         1.5384
      7 O1B         7.0790   29.7090   19.4730 O.2       1 GTP        -0.8948
      8 O2B         6.1250   31.9700   18.7490 O.3       1 GTP        -0.8948
      9 O3A         8.2510   31.8900   20.0030 O.3       1 GTP        -0.7420
     10 PA          8.8460   33.2610   19.4110 P.3       1 GTP         1.5254
     11 O1A         8.8880   33.2560   17.9570 O.2       1 GTP        -0.8812
     12 O2A         8.1050   34.3980   20.1290 O.3       1 GTP        -0.8812
     13 O5'        10.4300   33.1530   19.9000 O.3       1 GTP        -0.5720
     14 C5'        10.5490   33.0440   21.3780 C.3       1 GTP         0.2195
     15 C4'        12.0460   33.6180   21.4740 C.3       1 GTP         0.0900
     16 O4'        13.0520   32.8300   20.8180 O.3       1 GTP        -0.3725
     17 C3'        12.3070   34.9690   21.0570 C.3       1 GTP         0.0729
     18 O3'        13.1090   35.6720   21.9710 O.3       1 GTP        -0.6361
     19 C2'        12.8390   34.9710   19.5930 C.3       1 GTP         0.1120
     20 O2'        13.6720   35.9610   19.3550 O.3       1 GTP        -0.6183
     21 C1'        13.8460   33.6220   19.9270 C.3       1 GTP         0.2260
     22 N9         14.0010   32.8330   18.6490 N.pl3     1 GTP        -0.1831
     23 C8         12.9340   32.4520   17.8480 C.ar      1 GTP         0.4536
     24 N7         13.6400   31.7980   16.8990 N.ar      1 GTP        -0.6249
     25 C5         15.0290   31.8890   17.0010 C.ar      1 GTP         0.1719
     26 C6         15.8990   31.3940   16.2380 C.ar      1 GTP         0.6550
     27 O6         15.9820   30.6800   15.1910 O.2       1 GTP        -0.6574
     28 N1         17.2740   31.6280   16.8000 N.am      1 GTP        -0.5174
     29 C2         17.3040   32.2950   17.8960 C.ar      1 GTP         0.6623
     30 N2         18.6770   32.4500   18.4750 N.pl3     1 GTP        -0.9844
     31 N3         16.3840   32.7360   18.7390 N.ar      1 GTP        -0.6218
     32 C4         15.2180   32.5170   18.1350 C.ar      1 GTP         0.0791
     33 H5'         9.7718   33.6593   21.8548 H         1 GTP         0.0419
     34 H5''       10.4216   31.9939   21.6797 H         1 GTP         0.0419
     35 H4'        12.2583   33.6282   22.5533 H         1 GTP         0.0780
     36 H3'        11.3699   35.5332   21.1732 H         1 GTP         0.0539
     37 HO3'       12.8165   35.7279   23.0299 H         1 GTP         0.4655
     38 H2'        12.1431   35.1631   18.7630 H         1 GTP         0.0380
     39 HO2'       13.2830   36.9601   19.1092 H         1 GTP         0.4323
     40 H1'        14.8453   33.7628   20.3647 H         1 GTP         0.0951
     41 H8         11.8730   32.6240   17.9510 H         1 GTP         0.1402
     42 HN1        18.1572   31.2365   16.2739 H         1 GTP         0.3032
     43 HN21       19.5568   32.1296   17.8977 H         1 GTP         0.4346
     44 HN22       18.8054   32.8843   19.4775 H         1 GTP         0.4346
@<TRIPOS>BOND
     1    1    2 2
     2    1    3 1
     3    1    4 1
     4    1    5 1
     5    5    6 1
     6    6    7 2
     7    6    8 1
     8    6    9 1
     9    9   10 1
    10   10   11 2
    11   10   12 1
    12   10   13 1
    13   13   14 1
    14   14   15 1
    15   14   33 1
    16   14   34 1
    17   15   16 1
    18   15   17 1
    19   15   35 1
    20   16   21 1
    21   17   18 1
    22   17   19 1
    23   17   36 1
    24   18   37 1
    25   19   20 1
    26   19   21 1
    27   19   38 1
    28   20   39 1
    29   21   22 1
    30   21   40 1
    31   22   23 ar
    32   22   32 ar
    33   23   24 ar
    34   23   41 1
    35   24   25 ar
    36   25   26 ar
    37   25   32 ar
    38   26   27 2
    39   26   28 ar
    40   28   29 ar
    41   28   42 1
    42   29   30 1
    43   29   31 ar
    44   30   43 1
    45   30   44 1
    46   31   32 ar
@<TRIPOS>SUBSTRUCTURE
     1 GTP         1 GROUP   0 A     ****
@<TRIPOS>MOLECULE
[[[5-(2-amino-6-oxo-1~{H}-purin-9-yl)-3,4-dihydroxy-tetrahydrofuran-2-yl]methoxy-oxido-phosphoryl]oxy-oxido-phosphoryl] hydrogen phosphate
   45    47     1     0     0
SMALL
USER_CHARGES

@<TRIPOS>ATOM
      1 PG          4.5660   31.3910   21.6350 P.3       1 GTP         1.5228
      2 O1G         4.6130   31.9070   23.0690 O.2       1 GTP        -0.8714
      3 O2G         3.8920   32.3190   20.6310 O.3       1 GTP        -0.8714
      4 O3G         4.1430   30.0120   21.6130 O.3       1 GTP        -0.7959
      5 O3B         6.1600   31.3600   21.2280 O.3       1 GTP        -0.8082
      6 PB          6.8770   31.2020   19.7450 P.3       1 GTP         1.6812
      7 O1B         7.0790   29.7090   19.4730 O.2       1 GTP        -0.8917
      8 O2B         6.1250   31.9700   18.7490 O.3       1 GTP        -0.8917
      9 O3A         8.2510   31.8900   20.0030 O.3       1 GTP        -0.8102
     10 PA          8.8460   33.2610   19.4110 P.3       1 GTP         1.5867
     11 O1A         8.8880   33.2560   17.9570 O.2       1 GTP        -0.8903
     12 O2A         8.1050   34.3980   20.1290 O.3       1 GTP        -0.8903
     13 O5'        10.4300   33.1530   19.9000 O.3       1 GTP        -0.5659
     14 C5'        10.5490   33.0440   21.3780 C.3       1 GTP         0.2075
     15 C4'        12.0460   33.6180   21.4740 C.3       1 GTP         0.0711
     16 O4'        13.0520   32.8300   20.8180 O.3       1 GTP        -0.3828
     17 C3'        12.3070   34.9690   21.0570 C.3       1 GTP         0.1239
     18 O3'        13.1090   35.6720   21.9710 O.3       1 GTP        -0.5948
     19 C2'        12.8390   34.9710   19.5930 C.3       1 GTP         0.0992
     20 O2'        13.6720   35.9610   19.3550 O.3       1 GTP        -0.5581
     21 C1'        13.8460   33.6220   19.9270 C.3       1 GTP         0.2079
     22 N9         14.0010   32.8330   18.6490 N.pl3     1 GTP        -0.1849
     23 C8         12.9340   32.4520   17.8480 C.ar      1 GTP         0.4580
     24 N7         13.6400   31.7980   16.8990 N.ar      1 GTP        -0.6226
     25 C5         15.0290   31.8890   17.0010 C.ar      1 GTP         0.1948
     26 C6         15.8990   31.3940   16.2380 C.ar      1 GTP         0.6506
     27 O6         15.9820   30.6800   15.1910 O.2       1 GTP        -0.6356
     28 N1         17.2740   31.6280   16.8000 N.am      1 GTP        -0.5114
     29 C2         17.3040   32.2950   17.8960 C.ar      1 GTP         0.6162
     30 N2         18.6770   32.4500   18.4750 N.pl3     1 GTP        -0.8702
     31 N3         16.3840   32.7360   18.7390 N.ar      1 GTP        -0.6353
     32 C4         15.2180   32.5170   18.1350 C.ar      1 GTP         0.0575
     33 HOG3        3.1013   29.7523   21.8527 H         1 GTP         0.4111
     34 H5'         9.7718   33.6593   21.8548 H         1 GTP         0.0400
     35 H5''       10.4216   31.9939   21.6797 H         1 GTP         0.0400
     36 H4'        12.2583   33.6282   22.5533 H         1 GTP         0.0912
     37 H3'        11.3699   35.5332   21.1732 H         1 GTP         0.0525
     38 HO3'       12.8165   35.7279   23.0299 H         1 GTP         0.4397
     39 H2'        12.1431   35.1631   18.7630 H         1 GTP         0.0466
     40 HO2'       13.2830   36.9601   19.1092 H         1 GTP         0.3827
     41 H1'        14.8453   33.7628   20.3647 H         1 GTP         0.0814
     42 H8         11.8730   32.6240   17.9510 H         1 GTP         0.1214
     43 HN1        18.1572   31.2365   16.2739 H         1 GTP         0.3192
     44 HN21       19.5568   32.1296   17.8977 H         1 GTP         0.3896
     45 HN22       18.8054   32.8843   19.4775 H         1 GTP         0.3896
@<TRIPOS>BOND
     1    1    2 2
     2    1    3 1
     3    1    4 1
     4    1    5 1
     5    4   33 1
     6    5    6 1
     7    6    7 2
     8    6    8 1
     9    6    9 1
    10    9   10 1
    11   10   11 2
    12   10   12 1
    13   10   13 1
    14   13   14 1
    15   14   15 1
    16   14   34 1
    17   14   35 1
    18   15   16 1
    19   15   17 1
    20   15   36 1
    21   16   21 1
    22   17   18 1
    23   17   19 1
    24   17   37 1
    25   18   38 1
    26   19   20 1
    27   19   21 1
    28   19   39 1
    29   20   40 1
    30   21   22 1
    31   21   41 1
    32   22   23 ar
    33   22   32 ar
    34   23   24 ar
    35   23   42 1
    36   24   25 ar
    37   25   26 ar
    38   25   32 ar
    39   26   27 2
    40   26   28 ar
    41   28   29 ar
    42   28   43 1
    43   29   30 1
    44   29   31 ar
    45   30   44 1
    46   30   45 1
    47   31   32 ar
@<TRIPOS>SUBSTRUCTURE
     1 GTP         1 GROUP   0 A     ****
@<TRIPOS>MOLECULE
[[[5-(2-amino-6-oxido-purin-9-yl)-3,4-dihydroxy-tetrahydrofuran-2-yl]methoxy-oxido-phosphoryl]oxy-oxido-phosphoryl] phosphate
   43    45     1     0     0
SMALL
USER_CHARGES

@<TRIPOS>ATOM
      1 PG          4.5660   31.3910   21.6350 P.3       1 GTP         1.4381
      2 O1G         4.6130   31.9070   23.0690 O.2       1 GTP        -0.9686
      3 O2G         3.8920   32.3190   20.6310 O.3       1 GTP        -0.9686
      4 O3G         4.1430   30.0120   21.6130 O.3       1 GTP        -0.9686
      5 O3B         6.1600   31.3600   21.2280 O.3       1 GTP        -0.8130
      6 PB          6.8770   31.2020   19.7450 P.3       1 GTP         1.6730
      7 O1B         7.0790   29.7090   19.4730 O.2       1 GTP        -0.9258
      8 O2B         6.1250   31.9700   18.7490 O.3       1 GTP        -0.9258
      9 O3A         8.2510   31.8900   20.0030 O.3       1 GTP        -0.8060
     10 PA          8.8460   33.2610   19.4110 P.3       1 GTP         1.5802
     11 O1A         8.8880   33.2560   17.9570 O.2       1 GTP        -0.9126
     12 O2A         8.1050   34.3980   20.1290 O.3       1 GTP        -0.9126
     13 O5'        10.4300   33.1530   19.9000 O.3       1 GTP        -0.5589
     14 C5'        10.5490   33.0440   21.3780 C.3       1 GTP         0.2184
     15 C4'        12.0460   33.6180   21.4740 C.3       1 GTP         0.0760
     16 O4'        13.0520   32.8300   20.8180 O.3       1 GTP        -0.3801
     17 C3'        12.3070   34.9690   21.0570 C.3       1 GTP         0.0711
     18 O3'        13.1090   35.6720   21.9710 O.3       1 GTP        -0.6437
     19 C2'        12.8390   34.9710   19.5930 C.3       1 GTP         0.0985
     20 O2'        13.6720   35.9610   19.3550 O.3       1 GTP        -0.6215
     21 C1'        13.8460   33.6220   19.9270 C.3       1 GTP         0.4205
     22 N9         14.0010   32.8330   18.6490 N.pl3     1 GTP        -0.6995
     23 C8         12.9340   32.4520   17.8480 C.ar      1 GTP         0.4903
     24 N7         13.6400   31.7980   16.8990 N.ar      1 GTP        -0.5508
     25 C5         15.0290   31.8890   17.0010 C.ar      1 GTP        -0.2849
     26 C6         15.8990   31.3940   16.2380 C.ar      1 GTP         1.0033
     27 O6         15.9820   30.6800   15.1910 O.3       1 GTP        -0.8179
     28 N1         17.2740   31.6280   16.8000 N.ar      1 GTP        -0.9482
     29 C2         17.3040   32.2950   17.8960 C.ar      1 GTP         0.8357
     30 N2         18.6770   32.4500   18.4750 N.pl3     1 GTP        -0.9006
     31 N3         16.3840   32.7360   18.7390 N.ar      1 GTP        -0.8534
     32 C4         15.2180   32.5170   18.1350 C.ar      1 GTP         0.5741
     33 H5'         9.7718   33.6593   21.8548 H         1 GTP         0.0285
     34 H5''       10.4216   31.9939   21.6797 H         1 GTP         0.0285
     35 H4'        12.2583   33.6282   22.5533 H         1 GTP         0.0573
     36 H3'        11.3699   35.5332   21.1732 H         1 GTP         0.0670
     37 HO3'       12.8165   35.7279   23.0299 H         1 GTP         0.4494
     38 H2'        12.1431   35.1631   18.7630 H         1 GTP         0.0564
     39 HO2'       13.2830   36.9601   19.1092 H         1 GTP         0.4150
     40 H1'        14.8453   33.7628   20.3647 H         1 GTP         0.0898
     41 H8         11.8730   32.6240   17.9510 H         1 GTP         0.1015
     42 HN21       19.5568   32.1296   17.8977 H         1 GTP         0.3442
     43 HN22       18.8054   32.8843   19.4775 H         1 GTP         0.3442
@<TRIPOS>BOND
     1    1    2 2
     2    1    3 1
     3    1    4 1
     4    1    5 1
     5    5    6 1
     6    6    7 2
     7    6    8 1
     8    6    9 1
     9    9   10 1
    10   10   11 2
    11   10   12 1
    12   10   13 1
    13   13   14 1
    14   14   15 1
    15   14   33 1
    16   14   34 1
    17   15   16 1
    18   15   17 1
    19   15   35 1
    20   16   21 1
    21   17   18 1
    22   17   19 1
    23   17   36 1
    24   18   37 1
    25   19   20 1
    26   19   21 1
    27   19   38 1
    28   20   39 1
    29   21   22 1
    30   21   40 1
    31   22   23 ar
    32   22   32 ar
    33   23   24 ar
    34   23   41 1
    35   24   25 ar
    36   25   26 ar
    37   25   32 ar
    38   26   27 1
    39   26   28 ar
    40   28   29 ar
    41   29   30 1
    42   29   31 ar
    43   30   42 1
    44   30   43 1
    45   31   32 ar
@<TRIPOS>SUBSTRUCTURE
     1 GTP         1 GROUP   0 A     ****
@<TRIPOS>MOLECULE
[[[5-(2-amino-6-oxo-1~{H}-purin-9-yl)-3,4-dihydroxy-tetrahydrofuran-2-yl]methoxy-oxido-phosphoryl]oxy-hydroxy-phosphoryl] phosphate
   45    47     1     0     0
SMALL
USER_CHARGES

@<TRIPOS>ATOM
      1 PG          4.5660   31.3910   21.6350 P.3       1 GTP         1.4135
      2 O1G         4.6130   31.9070   23.0690 O.2       1 GTP        -0.9287
      3 O2G         3.8920   32.3190   20.6310 O.3       1 GTP        -0.9287
      4 O3G         4.1430   30.0120   21.6130 O.3       1 GTP        -0.9287
      5 O3B         6.1600   31.3600   21.2280 O.3       1 GTP        -0.7688
      6 PB          6.8770   31.2020   19.7450 P.3       1 GTP         1.8803
      7 O1B         7.0790   29.7090   19.4730 O.2       1 GTP        -0.9490
      8 O2B         6.1250   31.9700   18.7490 O.3       1 GTP        -0.8024
      9 O3A         8.2510   31.8900   20.0030 O.3       1 GTP        -0.8185
     10 PA          8.8460   33.2610   19.4110 P.3       1 GTP         1.6070
     11 O1A         8.8880   33.2560   17.9570 O.2       1 GTP        -0.8710
     12 O2A         8.1050   34.3980   20.1290 O.3       1 GTP        -0.8710
     13 O5'        10.4300   33.1530   19.9000 O.3       1 GTP        -0.5602
     14 C5'        10.5490   33.0440   21.3780 C.3       1 GTP         0.2033
     15 C4'        12.0460   33.6180   21.4740 C.3       1 GTP         0.1113
     16 O4'        13.0520   32.8300   20.8180 O.3       1 GTP        -0.3741
     17 C3'        12.3070   34.9690   21.0570 C.3       1 GTP         0.0719
     18 O3'        13.1090   35.6720   21.9710 O.3       1 GTP        -0.5763
     19 C2'        12.8390   34.9710   19.5930 C.3       1 GTP         0.0663
     20 O2'        13.6720   35.9610   19.3550 O.3       1 GTP        -0.6025
     21 C1'        13.8460   33.6220   19.9270 C.3       1 GTP         0.2164
     22 N9         14.0010   32.8330   18.6490 N.pl3     1 GTP        -0.1876
     23 C8         12.9340   32.4520   17.8480 C.ar      1 GTP         0.4559
     24 N7         13.6400   31.7980   16.8990 N.ar      1 GTP        -0.6183
     25 C5         15.0290   31.8890   17.0010 C.ar      1 GTP         0.1956
     26 C6         15.8990   31.3940   16.2380 C.ar      1 GTP         0.6474
     27 O6         15.9820   30.6800   15.1910 O.2       1 GTP        -0.6356
     28 N1         17.2740   31.6280   16.8000 N.am      1 GTP        -0.5045
     29 C2         17.3040   32.2950   17.8960 C.ar      1 GTP         0.6089
     30 N2         18.6770   32.4500   18.4750 N.pl3     1 GTP        -0.8726
     31 N3         16.3840   32.7360   18.7390 N.ar      1 GTP        -0.6214
     32 C4         15.2180   32.5170   18.1350 C.ar      1 GTP         0.0602
     33 HOB2        5.1247   31.6353   18.4370 H         1 GTP         0.4180
     34 H5'         9.7718   33.6593   21.8548 H         1 GTP         0.0430
     35 H5''       10.4216   31.9939   21.6797 H         1 GTP         0.0430
     36 H4'        12.2583   33.6282   22.5533 H         1 GTP         0.0885
     37 H3'        11.3699   35.5332   21.1732 H         1 GTP         0.0713
     38 HO3'       12.8165   35.7279   23.0299 H         1 GTP         0.3971
     39 H2'        12.1431   35.1631   18.7630 H         1 GTP         0.0765
     40 HO2'       13.2830   36.9601   19.1092 H         1 GTP         0.4245
     41 H1'        14.8453   33.7628   20.3647 H         1 GTP         0.0973
     42 H8         11.8730   32.6240   17.9510 H         1 GTP         0.1260
     43 HN1        18.1572   31.2365   16.2739 H         1 GTP         0.3201
     44 HN21       19.5568   32.1296   17.8977 H         1 GTP         0.3883
     45 HN22       18.8054   32.8843   19.4775 H         1 GTP         0.3883
@<TRIPOS>BOND
     1    1    2 2
     2    1    3 1
     3    1    4 1
     4    1    5 1
     5    5    6 1
     6    6    7 2
     7    6    8 1
     8    6    9 1
     9    8   33 1
    10    9   10 1
    11   10   11 2
    12   10   12 1
    13   10   13 1
    14   13   14 1
    15   14   15 1
    16   14   34 1
    17   14   35 1
    18   15   16 1
    19   15   17 1
    20   15   36 1
    21   16   21 1
    22   17   18 1
    23   17   19 1
    24   17   37 1
    25   18   38 1
    26   19   20 1
    27   19   21 1
    28   19   39 1
    29   20   40 1
    30   21   22 1
    31   21   41 1
    32   22   23 ar
    33   22   32 ar
    34   23   24 ar
    35   23   42 1
    36   24   25 ar
    37   25   26 ar
    38   25   32 ar
    39   26   27 2
    40   26   28 ar
    41   28   29 ar
    42   28   43 1
    43   29   30 1
    44   29   31 ar
    45   30   44 1
    46   30   45 1
    47   31   32 ar
@<TRIPOS>SUBSTRUCTURE
     1 GTP         1 GROUP   0 A     ****
@<TRIPOS>MOLECULE
[[[5-(2-amino-6-oxido-purin-9-yl)-3,4-dihydroxy-tetrahydrofuran-2-yl]methoxy-oxido-phosphoryl]oxy-oxido-phosphoryl] hydrogen phosphate
   44    46     1     0     0
SMALL
USER_CHARGES

@<TRIPOS>ATOM
      1 PG          4.5660   31.3910   21.6350 P.3       1 GTP         1.5180
      2 O1G         4.6130   31.9070   23.0690 O.2       1 GTP        -0.8757
      3 O2G         3.8920   32.3190   20.6310 O.3       1 GTP        -0.8757
      4 O3G         4.1430   30.0120   21.6130 O.3       1 GTP        -0.7992
      5 O3B         6.1600   31.3600   21.2280 O.3       1 GTP        -0.8044
      6 PB          6.8770   31.2020   19.7450 P.3       1 GTP         1.6855
      7 O1B         7.0790   29.7090   19.4730 O.2       1 GTP        -0.8976
      8 O2B         6.1250   31.9700   18.7490 O.3       1 GTP        -0.8976
      9 O3A         8.2510   31.8900   20.0030 O.3       1 GTP        -0.8117
     10 PA          8.8460   33.2610   19.4110 P.3       1 GTP         1.5894
     11 O1A         8.8880   33.2560   17.9570 O.2       1 GTP        -0.8918
     12 O2A         8.1050   34.3980   20.1290 O.3       1 GTP        -0.8918
     13 O5'        10.4300   33.1530   19.9000 O.3       1 GTP        -0.5735
     14 C5'        10.5490   33.0440   21.3780 C.3       1 GTP         0.1987
     15 C4'        12.0460   33.6180   21.4740 C.3       1 GTP         0.0786
     16 O4'        13.0520   32.8300   20.8180 O.3       1 GTP        -0.3937
     17 C3'        12.3070   34.9690   21.0570 C.3       1 GTP         0.1179
     18 O3'        13.1090   35.6720   21.9710 O.3       1 GTP        -0.6043
     19 C2'        12.8390   34.9710   19.5930 C.3       1 GTP         0.0940
     20 O2'        13.6720   35.9610   19.3550 O.3       1 GTP        -0.5839
     21 C1'        13.8460   33.6220   19.9270 C.3       1 GTP         0.4070
     22 N9         14.0010   32.8330   18.6490 N.pl3     1 GTP        -0.7085
     23 C8         12.9340   32.4520   17.8480 C.ar      1 GTP         0.4784
     24 N7         13.6400   31.7980   16.8990 N.ar      1 GTP        -0.5397
     25 C5         15.0290   31.8890   17.0010 C.ar      1 GTP        -0.2872
     26 C6         15.8990   31.3940   16.2380 C.ar      1 GTP         1.0082
     27 O6         15.9820   30.6800   15.1910 O.3       1 GTP        -0.7992
     28 N1         17.2740   31.6280   16.8000 N.ar      1 GTP        -0.9386
     29 C2         17.3040   32.2950   17.8960 C.ar      1 GTP         0.8486
     30 N2         18.6770   32.4500   18.4750 N.pl3     1 GTP        -0.9012
     31 N3         16.3840   32.7360   18.7390 N.ar      1 GTP        -0.8781
     32 C4         15.2180   32.5170   18.1350 C.ar      1 GTP         0.5789
     33 HOG3        3.1013   29.7523   21.8527 H         1 GTP         0.4137
     34 H5'         9.7718   33.6593   21.8548 H         1 GTP         0.0387
     35 H5''       10.4216   31.9939   21.6797 H         1 GTP         0.0387
     36 H4'        12.2583   33.6282   22.5533 H         1 GTP         0.0752
     37 H3'        11.3699   35.5332   21.1732 H         1 GTP         0.0533
     38 HO3'       12.8165   35.7279   23.0299 H         1 GTP         0.4280
     39 H2'        12.1431   35.1631   18.7630 H         1 GTP         0.0510
     40 HO2'       13.2830   36.9601   19.1092 H         1 GTP         0.3883
     41 H1'        14.8453   33.7628   20.3647 H         1 GTP         0.0741
     42 H8         11.8730   32.6240   17.9510 H         1 GTP         0.0880
     43 HN21       19.5568   32.1296   17.8977 H         1 GTP         0.3506
     44 HN22       18.8054   32.8843   19.4775 H         1 GTP         0.3506
@<TRIPOS>BOND
     1    1    2 2
     2    1    3 1
     3    1    4 1
     4    1    5 1
     5    4   33 1
     6    5    6 1
     7    6    7 2
     8    6    8 1
     9    6    9 1
    10    9   10 1
    11   10   11 2
    12   10   12 1
    13   10   13 1
    14   13   14 1
    15   14   15 1
    16   14   34 1
    17   14   35 1
    18   15   16 1
    19   15   17 1
    20   15   36 1
    21   16   21 1
    22   17   18 1
    23   17   19 1
    24   17   37 1
    25   18   38 1
    26   19   20 1
    27   19   21 1
    28   19   39 1
    29   20   40 1
    30   21   22 1
    31   21   41 1
    32   22   23 ar
    33   22   32 ar
    34   23   24 ar
    35   23   42 1
    36   24   25 ar
    37   25   26 ar
    38   25   32 ar
    39   26   27 1
    40   26   28 ar
    41   28   29 ar
    42   29   30 1
    43   29   31 ar
    44   30   43 1
    45   30   44 1
    46   31   32 ar
@<TRIPOS>SUBSTRUCTURE
     1 GTP         1 GROUP   0 A     ****
@<TRIPOS>MOLECULE
[[[5-(2-amino-6-oxo-1~{H}-purin-9-yl)-3,4-dihydroxy-tetrahydrofuran-2-yl]methoxy-hydroxy-phosphoryl]oxy-oxido-phosphoryl] phosphate
   45    47     1     0     0
SMALL
USER_CHARGES

@<TRIPOS>ATOM
      1 PG          4.5660   31.3910   21.6350 P.3       1 GTP        -1.1921
      2 O1G         4.6130   31.9070   23.0690 O.2       1 GTP         0.3195
      3 O2G         3.8920   32.3190   20.6310 O.3       1 GTP         0.3195
      4 O3G         4.1430   30.0120   21.6130 O.3       1 GTP         0.3195
      5 O3B         6.1600   31.3600   21.2280 O.3       1 GTP         0.4672
      6 PB          6.8770   31.2020   19.7450 P.3       1 GTP        -1.1062
      7 O1B         7.0790   29.7090   19.4730 O.2       1 GTP         0.3195
      8 O2B         6.1250   31.9700   18.7490 O.3       1 GTP         0.3195
      9 O3A         8.2510   31.8900   20.0030 O.3       1 GTP         0.4672
     10 PA          8.8460   33.2610   19.4110 P.3       1 GTP        -0.9715
     11 O1A         8.8880   33.2560   17.9570 O.2       1 GTP         0.2707
     12 O2A         8.1050   34.3980   20.1290 O.3       1 GTP         0.0326
     13 O5'        10.4300   33.1530   19.9000 O.3       1 GTP         0.1618
     14 C5'        10.5490   33.0440   21.3780 C.3       1 GTP         0.1504
     15 C4'        12.0460   33.6180   21.4740 C.3       1 GTP         0.1111
     16 O4'        13.0520   32.8300   20.8180 O.3       1 GTP        -0.1436
     17 C3'        12.3070   34.9690   21.0570 C.3       1 GTP         0.1111
     18 O3'        13.1090   35.6720   21.9710 O.3       1 GTP        -0.2728
     19 C2'        12.8390   34.9710   19.5930 C.3       1 GTP         0.1111
     20 O2'        13.6720   35.9610   19.3550 O.3       1 GTP        -0.2728
     21 C1'        13.8460   33.6220   19.9270 C.3       1 GTP         0.0918
     22 N9         14.0010   32.8330   18.6490 N.pl3     1 GTP        -0.0449
     23 C8         12.9340   32.4520   17.8480 C.ar      1 GTP         0.4884
     24 N7         13.6400   31.7980   16.8990 N.ar      1 GTP        -0.5260
     25 C5         15.0290   31.8890   17.0010 C.ar      1 GTP         0.4178
     26 C6         15.8990   31.3940   16.2380 C.ar      1 GTP         0.2530
     27 O6         15.9820   30.6800   15.1910 O.2       1 GTP        -0.2755
     28 N1         17.2740   31.6280   16.8000 N.am      1 GTP        -0.1604
     29 C2         17.3040   32.2950   17.8960 C.ar      1 GTP         0.4468
     30 N2         18.6770   32.4500   18.4750 N.pl3     1 GTP        -0.5618
     31 N3         16.3840   32.7360   18.7390 N.ar      1 GTP        -0.4271
     32 C4         15.2180   32.5170   18.1350 C.ar      1 GTP         0.0498
     33 HOA2        7.0451   34.5904   19.9065 H         1 GTP         0.2010
     34 H5'         9.7718   33.6593   21.8548 H         1 GTP        -0.0393
     35 H5''       10.4216   31.9939   21.6797 H         1 GTP        -0.0393
     36 H4'        12.2583   33.6282   22.5533 H         1 GTP        -0.0393
     37 H3'        11.3699   35.5332   21.1732 H         1 GTP        -0.0393
     38 HO3'       12.8165   35.7279   23.0299 H         1 GTP         0.2010
     39 H2'        12.1431   35.1631   18.7630 H         1 GTP        -0.0393
     40 HO2'       13.2830   36.9601   19.1092 H         1 GTP         0.2010
     41 H1'        14.8453   33.7628   20.3647 H         1 GTP        -0.0393
     42 H8         11.8730   32.6240   17.9510 H         1 GTP        -0.1369
     43 HN1        18.1572   31.2365   16.2739 H         1 GTP         0.0865
     44 HN21       19.5568   32.1296   17.8977 H         1 GTP         0.2048
     45 HN22       18.8054   32.8843   19.4775 H         1 GTP         0.2048
@<TRIPOS>BOND
     1    1    2 2
     2    1    3 1
     3    1    4 1
     4    1    5 1
     5    5    6 1
     6    6    7 2
     7    6    8 1
     8    6    9 1
     9    9   10 1
    10   10   11 2
    11   10   12 1
    12   10   13 1
    13   12   33 1
    14   13   14 1
    15   14   15 1
    16   14   34 1
    17   14   35 1
    18   15   16 1
    19   15   17 1
    20   15   36 1
    21   16   21 1
    22   17   18 1
    23   17   19 1
    24   17   37 1
    25   18   38 1
    26   19   20 1
    27   19   21 1
    28   19   39 1
    29   20   40 1
    30   21   22 1
    31   21   41 1
    32   22   23 ar
    33   22   32 ar
    34   23   24 ar
    35   23   42 1
    36   24   25 ar
    37   25   26 ar
    38   25   32 ar
    39   26   27 2
    40   26   28 ar
    41   28   29 ar
    42   28   43 1
    43   29   30 1
    44   29   31 ar
    45   30   44 1
    46   30   45 1
    47   31   32 ar
@<TRIPOS>SUBSTRUCTURE
     1 GTP         1 GROUP   0 A     ****
@<TRIPOS>MOLECULE
[[[5-(2-amino-6-oxo-1~{H}-purin-9-yl)-3,4-dihydroxy-tetrahydrofuran-2-yl]methoxy-hydroxy-phosphoryl]oxy-oxido-phosphoryl] phosphate
   45    47     1     0     0
SMALL
USER_CHARGES

@<TRIPOS>ATOM
      1 PG          4.5660   31.3910   21.6350 P.3       1 GTP        -1.1921
      2 O1G         4.6130   31.9070   23.0690 O.2       1 GTP         0.3195
      3 O2G         3.8920   32.3190   20.6310 O.3       1 GTP         0.3195
      4 O3G         4.1430   30.0120   21.6130 O.3       1 GTP         0.3195
      5 O3B         6.1600   31.3600   21.2280 O.3       1 GTP         0.4672
      6 PB          6.8770   31.2020   19.7450 P.3       1 GTP        -1.1062
      7 O1B         7.0790   29.7090   19.4730 O.2       1 GTP         0.3195
      8 O2B         6.1250   31.9700   18.7490 O.3       1 GTP         0.3195
      9 O3A         8.2510   31.8900   20.0030 O.3       1 GTP         0.4672
     10 PA          8.8460   33.2610   19.4110 P.3       1 GTP        -0.9715
     11 O1A         8.8880   33.2560   17.9570 O.2       1 GTP         0.2707
     12 O2A         8.1050   34.3980   20.1290 O.3       1 GTP         0.0326
     13 O5'        10.4300   33.1530   19.9000 O.3       1 GTP         0.1618
     14 C5'        10.5490   33.0440   21.3780 C.3       1 GTP         0.1504
     15 C4'        12.0460   33.6180   21.4740 C.3       1 GTP         0.1111
     16 O4'        13.0520   32.8300   20.8180 O.3       1 GTP        -0.1436
     17 C3'        12.3070   34.9690   21.0570 C.3       1 GTP         0.1111
     18 O3'        13.1090   35.6720   21.9710 O.3       1 GTP        -0.2728
     19 C2'        12.8390   34.9710   19.5930 C.3       1 GTP         0.1111
     20 O2'        13.6720   35.9610   19.3550 O.3       1 GTP        -0.2728
     21 C1'        13.8460   33.6220   19.9270 C.3       1 GTP         0.0918
     22 N9         14.0010   32.8330   18.6490 N.pl3     1 GTP        -0.0449
     23 C8         12.9340   32.4520   17.8480 C.ar      1 GTP         0.4884
     24 N7         13.6400   31.7980   16.8990 N.ar      1 GTP        -0.5260
     25 C5         15.0290   31.8890   17.0010 C.ar      1 GTP         0.4178
     26 C6         15.8990   31.3940   16.2380 C.ar      1 GTP         0.2530
     27 O6         15.9820   30.6800   15.1910 O.2       1 GTP        -0.2755
     28 N1         17.2740   31.6280   16.8000 N.am      1 GTP        -0.1604
     29 C2         17.3040   32.2950   17.8960 C.ar      1 GTP         0.4468
     30 N2         18.6770   32.4500   18.4750 N.pl3     1 GTP        -0.5618
     31 N3         16.3840   32.7360   18.7390 N.ar      1 GTP        -0.4271
     32 C4         15.2180   32.5170   18.1350 C.ar      1 GTP         0.0498
     33 HOA2        7.0451   34.5904   19.9065 H         1 GTP         0.2010
     34 H5'         9.7718   33.6593   21.8548 H         1 GTP        -0.0393
     35 H5''       10.4216   31.9939   21.6797 H         1 GTP        -0.0393
     36 H4'        12.2583   33.6282   22.5533 H         1 GTP        -0.0393
     37 H3'        11.3699   35.5332   21.1732 H         1 GTP        -0.0393
     38 HO3'       12.8165   35.7279   23.0299 H         1 GTP         0.2010
     39 H2'        12.1431   35.1631   18.7630 H         1 GTP        -0.0393
     40 HO2'       13.2830   36.9601   19.1092 H         1 GTP         0.2010
     41 H1'        14.8453   33.7628   20.3647 H         1 GTP        -0.0393
     42 H8         11.8730   32.6240   17.9510 H         1 GTP        -0.1369
     43 HN1        18.1572   31.2365   16.2739 H         1 GTP         0.0865
     44 HN21       19.5568   32.1296   17.8977 H         1 GTP         0.2048
     45 HN22       18.8054   32.8843   19.4775 H         1 GTP         0.2048
@<TRIPOS>BOND
     1    1    2 2
     2    1    3 1
     3    1    4 1
     4    1    5 1
     5    5    6 1
     6    6    7 2
     7    6    8 1
     8    6    9 1
     9    9   10 1
    10   10   11 2
    11   10   12 1
    12   10   13 1
    13   12   33 1
    14   13   14 1
    15   14   15 1
    16   14   34 1
    17   14   35 1
    18   15   16 1
    19   15   17 1
    20   15   36 1
    21   16   21 1
    22   17   18 1
    23   17   19 1
    24   17   37 1
    25   18   38 1
    26   19   20 1
    27   19   21 1
    28   19   39 1
    29   20   40 1
    30   21   22 1
    31   21   41 1
    32   22   23 ar
    33   22   32 ar
    34   23   24 ar
    35   23   42 1
    36   24   25 ar
    37   25   26 ar
    38   25   32 ar
    39   26   27 2
    40   26   28 ar
    41   28   29 ar
    42   28   43 1
    43   29   30 1
    44   29   31 ar
    45   30   44 1
    46   30   45 1
    47   31   32 ar
@<TRIPOS>SUBSTRUCTURE
     1 GTP         1 GROUP   0 A     ****
