@<TRIPOS>MOLECULE
[[[5-(2-amino-6-oxo-1~{H}-purin-9-yl)-3,4-dihydroxy-tetrahydrofuran-2-yl]methoxy-hydroxy-phosphoryl]oxy-oxido-phosphoryl] phosphate
   45    47     1     0     0
SMALL
USER_CHARGES

@<TRIPOS>ATOM
      1 PG         -2.2953    2.4209   -3.1652 P.3       1 GTP        -1.1921
      2 O1G        -3.1587    2.9899   -2.0443 O.co2     1 GTP         0.3195
      3 O2G        -2.8733    2.6104   -4.5634 O.co2     1 GTP         0.3195
      4 O3G        -1.7682    1.0153   -2.8952 O.co2     1 GTP         0.3195
      5 O3B        -0.9385    3.3563   -3.1519 O.3       1 GTP         0.4672
      6 PB          0.1754    3.6390   -1.9920 P.3       1 GTP        -1.1062
      7 O1B         0.7101    2.3155   -1.4920 O.co2     1 GTP         0.3195
      8 O2B         1.1124    4.7185   -2.4874 O.co2     1 GTP         0.3195
      9 O3A        -0.7944    4.2793   -0.8464 O.3       1 GTP         0.4672
     10 PA         -0.4427    4.8271    0.6349 P.3       1 GTP        -0.9715
     11 O1A         0.5394    5.9624    0.6510 O.2       1 GTP         0.2707
     12 O2A        -1.8876    5.1681    1.2779 O.3       1 GTP         0.0326
     13 O5'         0.0166    3.5128    1.4591 O.3       1 GTP         0.1618
     14 C5'        -0.8811    2.4285    1.6206 C.3       1 GTP         0.1504
     15 C4'        -0.1994    1.3333    2.4288 C.3       1 GTP         0.1111
     16 O4'        -1.1285    0.2356    2.5840 O.3       1 GTP        -0.1436
     17 C3'         1.0324    0.7610    1.7344 C.3       1 GTP         0.1111
     18 O3'         1.9175    0.2377    2.7247 O.3       1 GTP        -0.2728
     19 C2'         0.4468   -0.3802    0.9263 C.3       1 GTP         0.1111
     20 O2'         1.3993   -1.3703    0.5961 O.3       1 GTP        -0.2728
     21 C1'        -0.6159   -0.9100    1.8769 C.3       1 GTP         0.0918
     22 N9         -1.7127   -1.6108    1.2130 N.pl3     1 GTP        -0.0449
     23 C8         -1.7695   -2.9586    0.9546 C.ar      1 GTP         0.4884
     24 N7         -2.8846   -3.3047    0.3416 N.2       1 GTP        -0.5260
     25 C5         -3.5626   -2.1296    0.2052 C.ar      1 GTP         0.4178
     26 C6         -4.8477   -1.8989   -0.3942 C.ar      1 GTP         0.2530
     27 O6         -5.5373   -2.7819   -0.8881 O.2       1 GTP        -0.2755
     28 N1         -5.1895   -0.5407   -0.3318 N.pl3     1 GTP        -0.1604
     29 C2         -4.3899    0.4774    0.2398 C.ar      1 GTP         0.4468
     30 N2         -4.9233    1.7390    0.1898 N.pl3     1 GTP        -0.5618
     31 N3         -3.2159    0.2368    0.7822 N.2       1 GTP        -0.4271
     32 C4         -2.8678   -1.0679    0.7322 C.ar      1 GTP         0.0498
     33 HOA2       -1.9352    5.4469    2.2171 H         1 GTP         0.2010
     34 H5'        -1.7777    2.7838    2.1390 H         1 GTP        -0.0393
     35 H5''       -1.1661    2.0530    0.6323 H         1 GTP        -0.0393
     36 H4'         0.0402    1.7079    3.4342 H         1 GTP        -0.0393
     37 H3'         1.5907    1.4859    1.1353 H         1 GTP        -0.0393
     38 HO3'        2.6839   -0.1150    2.2479 H         1 GTP         0.2010
     39 H2'        -0.0017    0.0018    0.0005 H         1 GTP        -0.0393
     40 HO2'        2.0953   -0.9375    0.0709 H         1 GTP         0.2010
     41 H1'        -0.1998   -1.6319    2.6178 H         1 GTP        -0.0393
     42 H8         -0.9713   -3.6323    1.2352 H         1 GTP        -0.1369
     43 HN1        -6.0831   -0.2651   -0.7290 H         1 GTP         0.0865
     44 HN21       -4.3985    2.4878    0.5788 H         1 GTP         0.2048
     45 HN22       -5.8145    1.8572   -0.2335 H         1 GTP         0.2048
@<TRIPOS>BOND
     1    1    2 2
     2    1    3 1
     3    1    4 1
     4    1    5 1
     5    5    6 1
     6    6    7 2
     7    6    8 1
     8    6    9 1
     9    9   10 1
    10   10   11 2
    11   10   12 1
    12   10   13 1
    13   12   33 1
    14   13   14 1
    15   14   15 1
    16   14   34 1
    17   14   35 1
    18   15   16 1
    19   15   17 1
    20   15   36 1
    21   16   21 1
    22   17   18 1
    23   17   19 1
    24   17   37 1
    25   18   38 1
    26   19   20 1
    27   19   21 1
    28   19   39 1
    29   20   40 1
    30   21   22 1
    31   21   41 1
    32   22   23 ar
    33   22   32 ar
    34   23   24 ar
    35   23   42 1
    36   24   25 ar
    37   25   26 ar
    38   25   32 ar
    39   26   27 2
    40   26   28 ar
    41   28   29 ar
    42   28   43 1
    43   29   30 1
    44   29   31 ar
    45   30   44 1
    46   30   45 1
    47   31   32 ar
@<TRIPOS>SUBSTRUCTURE
     1 GTP         1 GROUP 0 A     ****
@<TRIPOS>MOLECULE
[[[5-(2-amino-6-oxo-1~{H}-purin-9-yl)-3,4-dihydroxy-tetrahydrofuran-2-yl]methoxy-hydroxy-phosphoryl]oxy-oxido-phosphoryl] phosphate
   45    47     1     0     0
SMALL
USER_CHARGES

@<TRIPOS>ATOM
      1 PG         -2.2953    2.4209   -3.1652 P.3       1 GTP        -1.1921
      2 O1G        -3.1587    2.9899   -2.0443 O.co2     1 GTP         0.3195
      3 O2G        -2.8733    2.6104   -4.5634 O.co2     1 GTP         0.3195
      4 O3G        -1.7682    1.0153   -2.8952 O.co2     1 GTP         0.3195
      5 O3B        -0.9385    3.3563   -3.1519 O.3       1 GTP         0.4672
      6 PB          0.1754    3.6390   -1.9920 P.3       1 GTP        -1.1062
      7 O1B         0.7101    2.3155   -1.4920 O.co2     1 GTP         0.3195
      8 O2B         1.1124    4.7185   -2.4874 O.co2     1 GTP         0.3195
      9 O3A        -0.7944    4.2793   -0.8464 O.3       1 GTP         0.4672
     10 PA         -0.4427    4.8271    0.6349 P.3       1 GTP        -0.9715
     11 O1A         0.5394    5.9624    0.6510 O.2       1 GTP         0.2707
     12 O2A        -1.8876    5.1681    1.2779 O.3       1 GTP         0.0326
     13 O5'         0.0166    3.5128    1.4591 O.3       1 GTP         0.1618
     14 C5'        -0.8811    2.4285    1.6206 C.3       1 GTP         0.1504
     15 C4'        -0.1994    1.3333    2.4288 C.3       1 GTP         0.1111
     16 O4'        -1.1285    0.2356    2.5840 O.3       1 GTP        -0.1436
     17 C3'         1.0324    0.7610    1.7344 C.3       1 GTP         0.1111
     18 O3'         1.9175    0.2377    2.7247 O.3       1 GTP        -0.2728
     19 C2'         0.4468   -0.3802    0.9263 C.3       1 GTP         0.1111
     20 O2'         1.3993   -1.3703    0.5961 O.3       1 GTP        -0.2728
     21 C1'        -0.6159   -0.9100    1.8769 C.3       1 GTP         0.0918
     22 N9         -1.7127   -1.6108    1.2130 N.pl3     1 GTP        -0.0449
     23 C8         -2.8667   -1.0365    0.7385 C.ar      1 GTP         0.4884
     24 N7         -3.6757   -1.9196    0.1868 N.2       1 GTP        -0.5260
     25 C5         -3.0088   -3.1018    0.3164 C.ar      1 GTP         0.4178
     26 C6         -3.4148   -4.4130   -0.1079 C.ar      1 GTP         0.2530
     27 O6         -4.4753   -4.6480   -0.6732 O.2       1 GTP        -0.2755
     28 N1         -2.4377   -5.3653    0.2144 N.pl3     1 GTP        -0.1604
     29 C2         -1.2132   -5.0902    0.8680 C.ar      1 GTP         0.4468
     30 N2         -0.4066   -6.1772    1.0834 N.pl3     1 GTP        -0.5618
     31 N3         -0.8672   -3.8786    1.2457 N.2       1 GTP        -0.4271
     32 C4         -1.7966   -2.9451    0.9439 C.ar      1 GTP         0.0498
     33 HOA2       -1.9352    5.4469    2.2171 H         1 GTP         0.2010
     34 H5'        -1.7777    2.7838    2.1390 H         1 GTP        -0.0393
     35 H5''       -1.1661    2.0530    0.6323 H         1 GTP        -0.0393
     36 H4'         0.0402    1.7079    3.4342 H         1 GTP        -0.0393
     37 H3'         1.5907    1.4859    1.1353 H         1 GTP        -0.0393
     38 HO3'        2.6839   -0.1150    2.2479 H         1 GTP         0.2010
     39 H2'        -0.0017    0.0018    0.0005 H         1 GTP        -0.0393
     40 HO2'        2.0953   -0.9375    0.0709 H         1 GTP         0.2010
     41 H1'        -0.1998   -1.6319    2.6178 H         1 GTP        -0.0393
     42 H8         -3.0589    0.0244    0.8247 H         1 GTP        -0.1369
     43 HN1        -2.6238   -6.3307   -0.0420 H         1 GTP         0.0865
     44 HN21        0.4646   -6.0341    1.5394 H         1 GTP         0.2048
     45 HN22       -0.7235   -7.0673    0.7753 H         1 GTP         0.2048
@<TRIPOS>BOND
     1    1    2 2
     2    1    3 1
     3    1    4 1
     4    1    5 1
     5    5    6 1
     6    6    7 2
     7    6    8 1
     8    6    9 1
     9    9   10 1
    10   10   11 2
    11   10   12 1
    12   10   13 1
    13   12   33 1
    14   13   14 1
    15   14   15 1
    16   14   34 1
    17   14   35 1
    18   15   16 1
    19   15   17 1
    20   15   36 1
    21   16   21 1
    22   17   18 1
    23   17   19 1
    24   17   37 1
    25   18   38 1
    26   19   20 1
    27   19   21 1
    28   19   39 1
    29   20   40 1
    30   21   22 1
    31   21   41 1
    32   22   23 ar
    33   22   32 ar
    34   23   24 ar
    35   23   42 1
    36   24   25 ar
    37   25   26 ar
    38   25   32 ar
    39   26   27 2
    40   26   28 ar
    41   28   29 ar
    42   28   43 1
    43   29   30 1
    44   29   31 ar
    45   30   44 1
    46   30   45 1
    47   31   32 ar
@<TRIPOS>SUBSTRUCTURE
     1 GTP         1 GROUP 0 A     ****
@<TRIPOS>MOLECULE
[[[5-(2-amino-6-oxo-1~{H}-purin-9-yl)-3,4-dihydroxy-tetrahydrofuran-2-yl]methoxy-hydroxy-phosphoryl]oxy-oxido-phosphoryl] phosphate
   45    47     1     0     0
SMALL
USER_CHARGES

@<TRIPOS>ATOM
      1 PG         -2.2004    2.3387   -3.1573 P.3       1 GTP        -1.1921
      2 O1G        -3.6868    2.6576   -3.0371 O.co2     1 GTP         0.3195
      3 O2G        -1.8017    1.6822   -4.4745 O.co2     1 GTP         0.3195
      4 O3G        -1.6034    1.6700   -1.9232 O.co2     1 GTP         0.3195
      5 O3B        -1.4669    3.8140   -3.1958 O.3       1 GTP         0.4672
      6 PB         -1.4515    5.0483   -2.1269 P.3       1 GTP        -1.1062
      7 O1B        -0.4819    6.1038   -2.6100 O.co2     1 GTP         0.3195
      8 O2B        -2.8834    5.4034   -1.7920 O.co2     1 GTP         0.3195
      9 O3A        -0.7944    4.2793   -0.8464 O.3       1 GTP         0.4672
     10 PA         -0.4427    4.8271    0.6349 P.3       1 GTP        -0.9715
     11 O1A         0.5394    5.9624    0.6510 O.2       1 GTP         0.2707
     12 O2A        -1.8876    5.1681    1.2779 O.3       1 GTP         0.0326
     13 O5'         0.0166    3.5128    1.4591 O.3       1 GTP         0.1618
     14 C5'        -0.8811    2.4285    1.6206 C.3       1 GTP         0.1504
     15 C4'        -0.1994    1.3333    2.4288 C.3       1 GTP         0.1111
     16 O4'        -1.1285    0.2356    2.5840 O.3       1 GTP        -0.1436
     17 C3'         1.0324    0.7610    1.7344 C.3       1 GTP         0.1111
     18 O3'         1.9175    0.2377    2.7247 O.3       1 GTP        -0.2728
     19 C2'         0.4468   -0.3802    0.9263 C.3       1 GTP         0.1111
     20 O2'         1.3993   -1.3703    0.5961 O.3       1 GTP        -0.2728
     21 C1'        -0.6159   -0.9100    1.8769 C.3       1 GTP         0.0918
     22 N9         -1.7127   -1.6108    1.2130 N.pl3     1 GTP        -0.0449
     23 C8         -1.7695   -2.9586    0.9546 C.ar      1 GTP         0.4884
     24 N7         -2.8846   -3.3047    0.3416 N.2       1 GTP        -0.5260
     25 C5         -3.5626   -2.1296    0.2052 C.ar      1 GTP         0.4178
     26 C6         -4.8477   -1.8989   -0.3942 C.ar      1 GTP         0.2530
     27 O6         -5.5373   -2.7819   -0.8881 O.2       1 GTP        -0.2755
     28 N1         -5.1895   -0.5407   -0.3318 N.pl3     1 GTP        -0.1604
     29 C2         -4.3899    0.4774    0.2398 C.ar      1 GTP         0.4468
     30 N2         -4.9233    1.7390    0.1898 N.pl3     1 GTP        -0.5618
     31 N3         -3.2159    0.2368    0.7822 N.2       1 GTP        -0.4271
     32 C4         -2.8678   -1.0679    0.7322 C.ar      1 GTP         0.0498
     33 HOA2       -2.4241    5.8887    0.8841 H         1 GTP         0.2010
     34 H5'        -1.7777    2.7838    2.1390 H         1 GTP        -0.0393
     35 H5''       -1.1661    2.0530    0.6323 H         1 GTP        -0.0393
     36 H4'         0.0402    1.7079    3.4342 H         1 GTP        -0.0393
     37 H3'         1.5907    1.4859    1.1353 H         1 GTP        -0.0393
     38 HO3'        2.6839   -0.1150    2.2479 H         1 GTP         0.2010
     39 H2'        -0.0017    0.0018    0.0005 H         1 GTP        -0.0393
     40 HO2'        0.9369   -2.0558    0.0825 H         1 GTP         0.2010
     41 H1'        -0.1998   -1.6319    2.6178 H         1 GTP        -0.0393
     42 H8         -0.9713   -3.6323    1.2352 H         1 GTP        -0.1369
     43 HN1        -6.0831   -0.2651   -0.7290 H         1 GTP         0.0865
     44 HN21       -4.3985    2.4878    0.5788 H         1 GTP         0.2048
     45 HN22       -5.8145    1.8572   -0.2335 H         1 GTP         0.2048
@<TRIPOS>BOND
     1    1    2 2
     2    1    3 1
     3    1    4 1
     4    1    5 1
     5    5    6 1
     6    6    7 2
     7    6    8 1
     8    6    9 1
     9    9   10 1
    10   10   11 2
    11   10   12 1
    12   10   13 1
    13   12   33 1
    14   13   14 1
    15   14   15 1
    16   14   34 1
    17   14   35 1
    18   15   16 1
    19   15   17 1
    20   15   36 1
    21   16   21 1
    22   17   18 1
    23   17   19 1
    24   17   37 1
    25   18   38 1
    26   19   20 1
    27   19   21 1
    28   19   39 1
    29   20   40 1
    30   21   22 1
    31   21   41 1
    32   22   23 ar
    33   22   32 ar
    34   23   24 ar
    35   23   42 1
    36   24   25 ar
    37   25   26 ar
    38   25   32 ar
    39   26   27 2
    40   26   28 ar
    41   28   29 ar
    42   28   43 1
    43   29   30 1
    44   29   31 ar
    45   30   44 1
    46   30   45 1
    47   31   32 ar
@<TRIPOS>SUBSTRUCTURE
     1 GTP         1 GROUP 0 A     ****
@<TRIPOS>MOLECULE
[[[5-(2-amino-6-oxo-1~{H}-purin-9-yl)-3,4-dihydroxy-tetrahydrofuran-2-yl]methoxy-hydroxy-phosphoryl]oxy-oxido-phosphoryl] phosphate
   45    47     1     0     0
SMALL
USER_CHARGES

@<TRIPOS>ATOM
      1 PG          0.6401    5.0950    4.7282 P.3       1 GTP        -1.1921
      2 O1G        -0.2186    5.6007    5.8826 O.co2     1 GTP         0.3195
      3 O2G         1.1215    3.6567    4.8845 O.co2     1 GTP         0.3195
      4 O3G         1.7261    6.0698    4.2843 O.co2     1 GTP         0.3195
      5 O3B        -0.3898    5.0456    3.4427 O.3       1 GTP         0.4672
      6 PB         -1.2706    6.2091    2.7102 P.3       1 GTP        -1.1062
      7 O1B        -2.3315    6.6993    3.6704 O.co2     1 GTP         0.3195
      8 O2B        -0.3174    7.1774    2.0450 O.co2     1 GTP         0.3195
      9 O3A        -1.9864    5.3082    1.5532 O.3       1 GTP         0.4672
     10 PA         -2.9678    4.0282    1.6820 P.3       1 GTP        -0.9715
     11 O1A        -4.2384    4.3035    2.4327 O.2       1 GTP         0.2707
     12 O2A        -3.1728    3.5385    0.1537 O.3       1 GTP         0.0326
     13 O5'        -2.0394    2.8623    2.3117 O.3       1 GTP         0.1618
     14 C5'        -0.8811    2.4285    1.6206 C.3       1 GTP         0.1504
     15 C4'        -0.1994    1.3333    2.4288 C.3       1 GTP         0.1111
     16 O4'        -1.1285    0.2356    2.5840 O.3       1 GTP        -0.1436
     17 C3'         1.0324    0.7610    1.7344 C.3       1 GTP         0.1111
     18 O3'         1.9175    0.2377    2.7247 O.3       1 GTP        -0.2728
     19 C2'         0.4468   -0.3802    0.9263 C.3       1 GTP         0.1111
     20 O2'         1.3993   -1.3703    0.5961 O.3       1 GTP        -0.2728
     21 C1'        -0.6159   -0.9100    1.8769 C.3       1 GTP         0.0918
     22 N9         -1.7127   -1.6108    1.2130 N.pl3     1 GTP        -0.0449
     23 C8         -2.8667   -1.0365    0.7385 C.ar      1 GTP         0.4884
     24 N7         -3.6757   -1.9196    0.1868 N.2       1 GTP        -0.5260
     25 C5         -3.0088   -3.1018    0.3164 C.ar      1 GTP         0.4178
     26 C6         -3.4148   -4.4130   -0.1079 C.ar      1 GTP         0.2530
     27 O6         -4.4753   -4.6480   -0.6732 O.2       1 GTP        -0.2755
     28 N1         -2.4377   -5.3653    0.2144 N.pl3     1 GTP        -0.1604
     29 C2         -1.2132   -5.0902    0.8680 C.ar      1 GTP         0.4468
     30 N2         -0.4066   -6.1772    1.0834 N.pl3     1 GTP        -0.5618
     31 N3         -0.8672   -3.8786    1.2457 N.2       1 GTP        -0.4271
     32 C4         -1.7966   -2.9451    0.9439 C.ar      1 GTP         0.0498
     33 HOA2       -3.6765    2.7144   -0.0170 H         1 GTP         0.2010
     34 H5'        -1.1757    2.0497    0.6364 H         1 GTP        -0.0393
     35 H5''       -0.2069    3.2809    1.4872 H         1 GTP        -0.0393
     36 H4'         0.0402    1.7079    3.4342 H         1 GTP        -0.0393
     37 H3'         1.5907    1.4859    1.1353 H         1 GTP        -0.0393
     38 HO3'        2.6839   -0.1150    2.2479 H         1 GTP         0.2010
     39 H2'        -0.0017    0.0018    0.0005 H         1 GTP        -0.0393
     40 HO2'        2.0953   -0.9375    0.0709 H         1 GTP         0.2010
     41 H1'        -0.1998   -1.6319    2.6178 H         1 GTP        -0.0393
     42 H8         -3.0589    0.0244    0.8247 H         1 GTP        -0.1369
     43 HN1        -2.6238   -6.3307   -0.0420 H         1 GTP         0.0865
     44 HN21        0.4646   -6.0341    1.5394 H         1 GTP         0.2048
     45 HN22       -0.7235   -7.0673    0.7753 H         1 GTP         0.2048
@<TRIPOS>BOND
     1    1    2 2
     2    1    3 1
     3    1    4 1
     4    1    5 1
     5    5    6 1
     6    6    7 2
     7    6    8 1
     8    6    9 1
     9    9   10 1
    10   10   11 2
    11   10   12 1
    12   10   13 1
    13   12   33 1
    14   13   14 1
    15   14   15 1
    16   14   34 1
    17   14   35 1
    18   15   16 1
    19   15   17 1
    20   15   36 1
    21   16   21 1
    22   17   18 1
    23   17   19 1
    24   17   37 1
    25   18   38 1
    26   19   20 1
    27   19   21 1
    28   19   39 1
    29   20   40 1
    30   21   22 1
    31   21   41 1
    32   22   23 ar
    33   22   32 ar
    34   23   24 ar
    35   23   42 1
    36   24   25 ar
    37   25   26 ar
    38   25   32 ar
    39   26   27 2
    40   26   28 ar
    41   28   29 ar
    42   28   43 1
    43   29   30 1
    44   29   31 ar
    45   30   44 1
    46   30   45 1
    47   31   32 ar
@<TRIPOS>SUBSTRUCTURE
     1 GTP         1 GROUP 0 A     ****
@<TRIPOS>MOLECULE
[[[5-(2-amino-6-oxo-1~{H}-purin-9-yl)-3,4-dihydroxy-tetrahydrofuran-2-yl]methoxy-hydroxy-phosphoryl]oxy-oxido-phosphoryl] phosphate
   45    47     1     0     0
SMALL
USER_CHARGES

@<TRIPOS>ATOM
      1 PG          0.6829    7.0575    0.6059 P.3       1 GTP        -1.1921
      2 O1G         0.0197    6.1581   -0.4319 O.co2     1 GTP         0.3195
      3 O2G         0.9919    8.4668    0.1124 O.co2     1 GTP         0.3195
      4 O3G         1.8315    6.3973    1.3617 O.co2     1 GTP         0.3195
      5 O3B        -0.4730    7.2715    1.7609 O.3       1 GTP         0.4672
      6 PB         -1.2706    6.2091    2.7102 P.3       1 GTP        -1.1062
      7 O1B        -0.2622    5.3504    3.4406 O.co2     1 GTP         0.3195
      8 O2B        -2.3433    6.9614    3.4666 O.co2     1 GTP         0.3195
      9 O3A        -1.9864    5.3082    1.5532 O.3       1 GTP         0.4672
     10 PA         -2.9678    4.0282    1.6820 P.3       1 GTP        -0.9715
     11 O1A        -4.2384    4.3035    2.4327 O.2       1 GTP         0.2707
     12 O2A        -3.1728    3.5385    0.1537 O.3       1 GTP         0.0326
     13 O5'        -2.0394    2.8623    2.3117 O.3       1 GTP         0.1618
     14 C5'        -0.8811    2.4285    1.6206 C.3       1 GTP         0.1504
     15 C4'        -0.1994    1.3333    2.4288 C.3       1 GTP         0.1111
     16 O4'        -1.1285    0.2356    2.5840 O.3       1 GTP        -0.1436
     17 C3'         1.0324    0.7610    1.7344 C.3       1 GTP         0.1111
     18 O3'         1.9175    0.2377    2.7247 O.3       1 GTP        -0.2728
     19 C2'         0.4468   -0.3802    0.9263 C.3       1 GTP         0.1111
     20 O2'         1.3993   -1.3703    0.5961 O.3       1 GTP        -0.2728
     21 C1'        -0.6159   -0.9100    1.8769 C.3       1 GTP         0.0918
     22 N9         -1.7127   -1.6108    1.2130 N.pl3     1 GTP        -0.0449
     23 C8         -2.8667   -1.0365    0.7385 C.ar      1 GTP         0.4884
     24 N7         -3.6757   -1.9196    0.1868 N.2       1 GTP        -0.5260
     25 C5         -3.0088   -3.1018    0.3164 C.ar      1 GTP         0.4178
     26 C6         -3.4148   -4.4130   -0.1079 C.ar      1 GTP         0.2530
     27 O6         -4.4753   -4.6480   -0.6732 O.2       1 GTP        -0.2755
     28 N1         -2.4377   -5.3653    0.2144 N.pl3     1 GTP        -0.1604
     29 C2         -1.2132   -5.0902    0.8680 C.ar      1 GTP         0.4468
     30 N2         -0.4066   -6.1772    1.0834 N.pl3     1 GTP        -0.5618
     31 N3         -0.8672   -3.8786    1.2457 N.2       1 GTP        -0.4271
     32 C4         -1.7966   -2.9451    0.9439 C.ar      1 GTP         0.0498
     33 HOA2       -3.6765    2.7144   -0.0170 H         1 GTP         0.2010
     34 H5'        -1.1757    2.0497    0.6364 H         1 GTP        -0.0393
     35 H5''       -0.2069    3.2809    1.4872 H         1 GTP        -0.0393
     36 H4'         0.0402    1.7079    3.4342 H         1 GTP        -0.0393
     37 H3'         1.5907    1.4859    1.1353 H         1 GTP        -0.0393
     38 HO3'        2.6839   -0.1150    2.2479 H         1 GTP         0.2010
     39 H2'        -0.0017    0.0018    0.0005 H         1 GTP        -0.0393
     40 HO2'        2.0953   -0.9375    0.0709 H         1 GTP         0.2010
     41 H1'        -0.1998   -1.6319    2.6178 H         1 GTP        -0.0393
     42 H8         -3.0589    0.0244    0.8247 H         1 GTP        -0.1369
     43 HN1        -2.6238   -6.3307   -0.0420 H         1 GTP         0.0865
     44 HN21        0.4646   -6.0341    1.5394 H         1 GTP         0.2048
     45 HN22       -0.7235   -7.0673    0.7753 H         1 GTP         0.2048
@<TRIPOS>BOND
     1    1    2 2
     2    1    3 1
     3    1    4 1
     4    1    5 1
     5    5    6 1
     6    6    7 2
     7    6    8 1
     8    6    9 1
     9    9   10 1
    10   10   11 2
    11   10   12 1
    12   10   13 1
    13   12   33 1
    14   13   14 1
    15   14   15 1
    16   14   34 1
    17   14   35 1
    18   15   16 1
    19   15   17 1
    20   15   36 1
    21   16   21 1
    22   17   18 1
    23   17   19 1
    24   17   37 1
    25   18   38 1
    26   19   20 1
    27   19   21 1
    28   19   39 1
    29   20   40 1
    30   21   22 1
    31   21   41 1
    32   22   23 ar
    33   22   32 ar
    34   23   24 ar
    35   23   42 1
    36   24   25 ar
    37   25   26 ar
    38   25   32 ar
    39   26   27 2
    40   26   28 ar
    41   28   29 ar
    42   28   43 1
    43   29   30 1
    44   29   31 ar
    45   30   44 1
    46   30   45 1
    47   31   32 ar
@<TRIPOS>SUBSTRUCTURE
     1 GTP         1 GROUP 0 A     ****
@<TRIPOS>MOLECULE
[[[5-(2-amino-6-oxo-1~{H}-purin-9-yl)-3,4-dihydroxy-tetrahydrofuran-2-yl]methoxy-hydroxy-phosphoryl]oxy-oxido-phosphoryl] phosphate
   45    47     1     0     0
SMALL
USER_CHARGES

@<TRIPOS>ATOM
      1 PG         -2.7867    7.7292    4.7971 P.3       1 GTP        -1.1921
      2 O1G        -2.1243    9.0393    4.3840 O.co2     1 GTP         0.3195
      3 O2G        -4.2959    7.8212    4.9934 O.co2     1 GTP         0.3195
      4 O3G        -2.0584    6.9859    5.9123 O.co2     1 GTP         0.3195
      5 O3B        -2.6024    6.7464    3.4872 O.3       1 GTP         0.4672
      6 PB         -1.2706    6.2091    2.7102 P.3       1 GTP        -1.1062
      7 O1B        -0.5784    7.3828    2.0536 O.co2     1 GTP         0.3195
      8 O2B        -0.5180    5.2854    3.6424 O.co2     1 GTP         0.3195
      9 O3A        -1.9864    5.3082    1.5532 O.3       1 GTP         0.4672
     10 PA         -2.9678    4.0282    1.6820 P.3       1 GTP        -0.9715
     11 O1A        -4.2384    4.3035    2.4327 O.2       1 GTP         0.2707
     12 O2A        -3.1728    3.5385    0.1537 O.3       1 GTP         0.0326
     13 O5'        -2.0394    2.8623    2.3117 O.3       1 GTP         0.1618
     14 C5'        -0.8811    2.4285    1.6206 C.3       1 GTP         0.1504
     15 C4'        -0.1994    1.3333    2.4288 C.3       1 GTP         0.1111
     16 O4'        -1.1285    0.2356    2.5840 O.3       1 GTP        -0.1436
     17 C3'         1.0324    0.7610    1.7344 C.3       1 GTP         0.1111
     18 O3'         1.9175    0.2377    2.7247 O.3       1 GTP        -0.2728
     19 C2'         0.4468   -0.3802    0.9263 C.3       1 GTP         0.1111
     20 O2'         1.3993   -1.3703    0.5961 O.3       1 GTP        -0.2728
     21 C1'        -0.6159   -0.9100    1.8769 C.3       1 GTP         0.0918
     22 N9         -1.7127   -1.6108    1.2130 N.pl3     1 GTP        -0.0449
     23 C8         -2.8667   -1.0365    0.7385 C.ar      1 GTP         0.4884
     24 N7         -3.6757   -1.9196    0.1868 N.2       1 GTP        -0.5260
     25 C5         -3.0088   -3.1018    0.3164 C.ar      1 GTP         0.4178
     26 C6         -3.4148   -4.4130   -0.1079 C.ar      1 GTP         0.2530
     27 O6         -4.4753   -4.6480   -0.6732 O.2       1 GTP        -0.2755
     28 N1         -2.4377   -5.3653    0.2144 N.pl3     1 GTP        -0.1604
     29 C2         -1.2132   -5.0902    0.8680 C.ar      1 GTP         0.4468
     30 N2         -0.4066   -6.1772    1.0834 N.pl3     1 GTP        -0.5618
     31 N3         -0.8672   -3.8786    1.2457 N.2       1 GTP        -0.4271
     32 C4         -1.7966   -2.9451    0.9439 C.ar      1 GTP         0.0498
     33 HOA2       -3.6765    2.7144   -0.0170 H         1 GTP         0.2010
     34 H5'        -1.1757    2.0497    0.6364 H         1 GTP        -0.0393
     35 H5''       -0.2069    3.2809    1.4872 H         1 GTP        -0.0393
     36 H4'         0.0402    1.7079    3.4342 H         1 GTP        -0.0393
     37 H3'         1.5907    1.4859    1.1353 H         1 GTP        -0.0393
     38 HO3'        2.6839   -0.1150    2.2479 H         1 GTP         0.2010
     39 H2'        -0.0017    0.0018    0.0005 H         1 GTP        -0.0393
     40 HO2'        2.0953   -0.9375    0.0709 H         1 GTP         0.2010
     41 H1'        -0.1998   -1.6319    2.6178 H         1 GTP        -0.0393
     42 H8         -3.0589    0.0244    0.8247 H         1 GTP        -0.1369
     43 HN1        -2.6238   -6.3307   -0.0420 H         1 GTP         0.0865
     44 HN21        0.4646   -6.0341    1.5394 H         1 GTP         0.2048
     45 HN22       -0.7235   -7.0673    0.7753 H         1 GTP         0.2048
@<TRIPOS>BOND
     1    1    2 2
     2    1    3 1
     3    1    4 1
     4    1    5 1
     5    5    6 1
     6    6    7 2
     7    6    8 1
     8    6    9 1
     9    9   10 1
    10   10   11 2
    11   10   12 1
    12   10   13 1
    13   12   33 1
    14   13   14 1
    15   14   15 1
    16   14   34 1
    17   14   35 1
    18   15   16 1
    19   15   17 1
    20   15   36 1
    21   16   21 1
    22   17   18 1
    23   17   19 1
    24   17   37 1
    25   18   38 1
    26   19   20 1
    27   19   21 1
    28   19   39 1
    29   20   40 1
    30   21   22 1
    31   21   41 1
    32   22   23 ar
    33   22   32 ar
    34   23   24 ar
    35   23   42 1
    36   24   25 ar
    37   25   26 ar
    38   25   32 ar
    39   26   27 2
    40   26   28 ar
    41   28   29 ar
    42   28   43 1
    43   29   30 1
    44   29   31 ar
    45   30   44 1
    46   30   45 1
    47   31   32 ar
@<TRIPOS>SUBSTRUCTURE
     1 GTP         1 GROUP 0 A     ****
@<TRIPOS>MOLECULE
[[[5-(2-amino-6-oxo-1~{H}-purin-9-yl)-3,4-dihydroxy-tetrahydrofuran-2-yl]methoxy-hydroxy-phosphoryl]oxy-oxido-phosphoryl] phosphate
   45    47     1     0     0
SMALL
USER_CHARGES

@<TRIPOS>ATOM
      1 PG          1.7967    6.4561    2.8501 P.3       1 GTP        -1.1921
      2 O1G         1.1881    6.2533    1.4666 O.co2     1 GTP         0.3195
      3 O2G         2.4903    7.8004    3.0421 O.co2     1 GTP         0.3195
      4 O3G         2.5993    5.2635    3.3601 O.co2     1 GTP         0.3195
      5 O3B         0.4987    6.5157    3.8638 O.3       1 GTP         0.4672
      6 PB         -0.6830    5.4345    4.1812 P.3       1 GTP        -1.1062
      7 O1B        -0.0509    4.1164    4.5692 O.co2     1 GTP         0.3195
      8 O2B        -1.7060    6.0990    5.0760 O.co2     1 GTP         0.3195
      9 O3A        -1.3176    5.2914    2.6847 O.3       1 GTP         0.4672
     10 PA         -2.5512    4.3890    2.1537 P.3       1 GTP        -0.9715
     11 O1A        -3.8625    4.6915    2.8192 O.2       1 GTP         0.2707
     12 O2A        -2.5345    4.6098    0.5511 O.3       1 GTP         0.0326
     13 O5'        -2.0394    2.8623    2.3117 O.3       1 GTP         0.1618
     14 C5'        -0.8811    2.4285    1.6206 C.3       1 GTP         0.1504
     15 C4'        -0.1994    1.3333    2.4288 C.3       1 GTP         0.1111
     16 O4'        -1.1285    0.2356    2.5840 O.3       1 GTP        -0.1436
     17 C3'         1.0324    0.7610    1.7344 C.3       1 GTP         0.1111
     18 O3'         1.9175    0.2377    2.7247 O.3       1 GTP        -0.2728
     19 C2'         0.4468   -0.3802    0.9263 C.3       1 GTP         0.1111
     20 O2'         1.3993   -1.3703    0.5961 O.3       1 GTP        -0.2728
     21 C1'        -0.6159   -0.9100    1.8769 C.3       1 GTP         0.0918
     22 N9         -1.7127   -1.6108    1.2130 N.pl3     1 GTP        -0.0449
     23 C8         -1.7695   -2.9586    0.9546 C.ar      1 GTP         0.4884
     24 N7         -2.8846   -3.3047    0.3416 N.2       1 GTP        -0.5260
     25 C5         -3.5626   -2.1296    0.2052 C.ar      1 GTP         0.4178
     26 C6         -4.8477   -1.8989   -0.3942 C.ar      1 GTP         0.2530
     27 O6         -5.5373   -2.7819   -0.8881 O.2       1 GTP        -0.2755
     28 N1         -5.1895   -0.5407   -0.3318 N.pl3     1 GTP        -0.1604
     29 C2         -4.3899    0.4774    0.2398 C.ar      1 GTP         0.4468
     30 N2         -4.9233    1.7390    0.1898 N.pl3     1 GTP        -0.5618
     31 N3         -3.2159    0.2368    0.7822 N.2       1 GTP        -0.4271
     32 C4         -2.8678   -1.0679    0.7322 C.ar      1 GTP         0.0498
     33 HOA2       -2.7276    5.5023    0.1931 H         1 GTP         0.2010
     34 H5'        -1.1757    2.0497    0.6364 H         1 GTP        -0.0393
     35 H5''       -0.2069    3.2809    1.4872 H         1 GTP        -0.0393
     36 H4'         0.0402    1.7079    3.4342 H         1 GTP        -0.0393
     37 H3'         1.5907    1.4859    1.1353 H         1 GTP        -0.0393
     38 HO3'        2.6839   -0.1150    2.2479 H         1 GTP         0.2010
     39 H2'        -0.0017    0.0018    0.0005 H         1 GTP        -0.0393
     40 HO2'        2.0953   -0.9375    0.0709 H         1 GTP         0.2010
     41 H1'        -0.1998   -1.6319    2.6178 H         1 GTP        -0.0393
     42 H8         -0.9713   -3.6323    1.2352 H         1 GTP        -0.1369
     43 HN1        -6.0831   -0.2651   -0.7290 H         1 GTP         0.0865
     44 HN21       -4.3985    2.4878    0.5788 H         1 GTP         0.2048
     45 HN22       -5.8145    1.8572   -0.2335 H         1 GTP         0.2048
@<TRIPOS>BOND
     1    1    2 2
     2    1    3 1
     3    1    4 1
     4    1    5 1
     5    5    6 1
     6    6    7 2
     7    6    8 1
     8    6    9 1
     9    9   10 1
    10   10   11 2
    11   10   12 1
    12   10   13 1
    13   12   33 1
    14   13   14 1
    15   14   15 1
    16   14   34 1
    17   14   35 1
    18   15   16 1
    19   15   17 1
    20   15   36 1
    21   16   21 1
    22   17   18 1
    23   17   19 1
    24   17   37 1
    25   18   38 1
    26   19   20 1
    27   19   21 1
    28   19   39 1
    29   20   40 1
    30   21   22 1
    31   21   41 1
    32   22   23 ar
    33   22   32 ar
    34   23   24 ar
    35   23   42 1
    36   24   25 ar
    37   25   26 ar
    38   25   32 ar
    39   26   27 2
    40   26   28 ar
    41   28   29 ar
    42   28   43 1
    43   29   30 1
    44   29   31 ar
    45   30   44 1
    46   30   45 1
    47   31   32 ar
@<TRIPOS>SUBSTRUCTURE
     1 GTP         1 GROUP 0 A     ****
@<TRIPOS>MOLECULE
[[[5-(2-amino-6-oxo-1~{H}-purin-9-yl)-3,4-dihydroxy-tetrahydrofuran-2-yl]methoxy-hydroxy-phosphoryl]oxy-oxido-phosphoryl] phosphate
   45    47     1     0     0
SMALL
USER_CHARGES

@<TRIPOS>ATOM
      1 PG          2.5185    2.1867   -2.1389 P.3       1 GTP        -1.1921
      2 O1G         3.4631    3.3122   -2.5471 O.co2     1 GTP         0.3195
      3 O2G         3.0347    1.3130   -1.0008 O.co2     1 GTP         0.3195
      4 O3G         1.9384    1.4023   -3.3114 O.co2     1 GTP         0.3195
      5 O3B         1.2107    2.9607   -1.5013 O.3       1 GTP         0.4672
      6 PB          0.1709    4.0449   -2.1411 P.3       1 GTP        -1.1062
      7 O1B         0.9166    5.3287   -2.4301 O.co2     1 GTP         0.3195
      8 O2B        -0.6317    3.3525   -3.2205 O.co2     1 GTP         0.3195
      9 O3A        -0.7944    4.2793   -0.8464 O.3       1 GTP         0.4672
     10 PA         -0.4427    4.8271    0.6349 P.3       1 GTP        -0.9715
     11 O1A         0.5394    5.9624    0.6510 O.2       1 GTP         0.2707
     12 O2A        -1.8876    5.1681    1.2779 O.3       1 GTP         0.0326
     13 O5'         0.0166    3.5128    1.4591 O.3       1 GTP         0.1618
     14 C5'        -0.8811    2.4285    1.6206 C.3       1 GTP         0.1504
     15 C4'        -0.1994    1.3333    2.4288 C.3       1 GTP         0.1111
     16 O4'        -1.1285    0.2356    2.5840 O.3       1 GTP        -0.1436
     17 C3'         1.0324    0.7610    1.7344 C.3       1 GTP         0.1111
     18 O3'         1.9175    0.2377    2.7247 O.3       1 GTP        -0.2728
     19 C2'         0.4468   -0.3802    0.9263 C.3       1 GTP         0.1111
     20 O2'         1.3993   -1.3703    0.5961 O.3       1 GTP        -0.2728
     21 C1'        -0.6159   -0.9100    1.8769 C.3       1 GTP         0.0918
     22 N9         -1.7127   -1.6108    1.2130 N.pl3     1 GTP        -0.0449
     23 C8         -2.8667   -1.0365    0.7385 C.ar      1 GTP         0.4884
     24 N7         -3.6757   -1.9196    0.1868 N.2       1 GTP        -0.5260
     25 C5         -3.0088   -3.1018    0.3164 C.ar      1 GTP         0.4178
     26 C6         -3.4148   -4.4130   -0.1079 C.ar      1 GTP         0.2530
     27 O6         -4.4753   -4.6480   -0.6732 O.2       1 GTP        -0.2755
     28 N1         -2.4377   -5.3653    0.2144 N.pl3     1 GTP        -0.1604
     29 C2         -1.2132   -5.0902    0.8680 C.ar      1 GTP         0.4468
     30 N2         -0.4066   -6.1772    1.0834 N.pl3     1 GTP        -0.5618
     31 N3         -0.8672   -3.8786    1.2457 N.2       1 GTP        -0.4271
     32 C4         -1.7966   -2.9451    0.9439 C.ar      1 GTP         0.0498
     33 HOA2       -1.9352    5.4469    2.2171 H         1 GTP         0.2010
     34 H5'        -1.7777    2.7838    2.1390 H         1 GTP        -0.0393
     35 H5''       -1.1661    2.0530    0.6323 H         1 GTP        -0.0393
     36 H4'         0.0402    1.7079    3.4342 H         1 GTP        -0.0393
     37 H3'         1.5907    1.4859    1.1353 H         1 GTP        -0.0393
     38 HO3'        2.6839   -0.1150    2.2479 H         1 GTP         0.2010
     39 H2'        -0.0017    0.0018    0.0005 H         1 GTP        -0.0393
     40 HO2'        2.0953   -0.9375    0.0709 H         1 GTP         0.2010
     41 H1'        -0.1998   -1.6319    2.6178 H         1 GTP        -0.0393
     42 H8         -3.0589    0.0244    0.8247 H         1 GTP        -0.1369
     43 HN1        -2.6238   -6.3307   -0.0420 H         1 GTP         0.0865
     44 HN21        0.4646   -6.0341    1.5394 H         1 GTP         0.2048
     45 HN22       -0.7235   -7.0673    0.7753 H         1 GTP         0.2048
@<TRIPOS>BOND
     1    1    2 2
     2    1    3 1
     3    1    4 1
     4    1    5 1
     5    5    6 1
     6    6    7 2
     7    6    8 1
     8    6    9 1
     9    9   10 1
    10   10   11 2
    11   10   12 1
    12   10   13 1
    13   12   33 1
    14   13   14 1
    15   14   15 1
    16   14   34 1
    17   14   35 1
    18   15   16 1
    19   15   17 1
    20   15   36 1
    21   16   21 1
    22   17   18 1
    23   17   19 1
    24   17   37 1
    25   18   38 1
    26   19   20 1
    27   19   21 1
    28   19   39 1
    29   20   40 1
    30   21   22 1
    31   21   41 1
    32   22   23 ar
    33   22   32 ar
    34   23   24 ar
    35   23   42 1
    36   24   25 ar
    37   25   26 ar
    38   25   32 ar
    39   26   27 2
    40   26   28 ar
    41   28   29 ar
    42   28   43 1
    43   29   30 1
    44   29   31 ar
    45   30   44 1
    46   30   45 1
    47   31   32 ar
@<TRIPOS>SUBSTRUCTURE
     1 GTP         1 GROUP 0 A     ****
@<TRIPOS>MOLECULE
[[[5-(2-amino-6-oxo-1~{H}-purin-9-yl)-3,4-dihydroxy-tetrahydrofuran-2-yl]methoxy-hydroxy-phosphoryl]oxy-oxido-phosphoryl] phosphate
   45    47     1     0     0
SMALL
USER_CHARGES

@<TRIPOS>ATOM
      1 PG         -0.3811    3.8950    6.4527 P.3       1 GTP        -1.1921
      2 O1G        -1.4826    4.5189    7.3031 O.co2     1 GTP         0.3195
      3 O2G        -0.3849    2.3703    6.4372 O.co2     1 GTP         0.3195
      4 O3G         0.9976    4.5115    6.6663 O.co2     1 GTP         0.3195
      5 O3B        -0.7650    4.3219    4.9079 O.3       1 GTP         0.4672
      6 PB         -0.9422    5.7804    4.1956 P.3       1 GTP        -1.1062
      7 O1B        -2.1444    6.4762    4.7940 O.co2     1 GTP         0.3195
      8 O2B         0.4099    6.4581    4.1598 O.co2     1 GTP         0.3195
      9 O3A        -1.3176    5.2914    2.6847 O.3       1 GTP         0.4672
     10 PA         -2.5512    4.3890    2.1537 P.3       1 GTP        -0.9715
     11 O1A        -3.8625    4.6915    2.8192 O.2       1 GTP         0.2707
     12 O2A        -2.5345    4.6098    0.5511 O.3       1 GTP         0.0326
     13 O5'        -2.0394    2.8623    2.3117 O.3       1 GTP         0.1618
     14 C5'        -0.8811    2.4285    1.6206 C.3       1 GTP         0.1504
     15 C4'        -0.1994    1.3333    2.4288 C.3       1 GTP         0.1111
     16 O4'        -1.1285    0.2356    2.5840 O.3       1 GTP        -0.1436
     17 C3'         1.0324    0.7610    1.7344 C.3       1 GTP         0.1111
     18 O3'         1.9175    0.2377    2.7247 O.3       1 GTP        -0.2728
     19 C2'         0.4468   -0.3802    0.9263 C.3       1 GTP         0.1111
     20 O2'         1.3993   -1.3703    0.5961 O.3       1 GTP        -0.2728
     21 C1'        -0.6159   -0.9100    1.8769 C.3       1 GTP         0.0918
     22 N9         -1.7127   -1.6108    1.2130 N.pl3     1 GTP        -0.0449
     23 C8         -1.7695   -2.9586    0.9546 C.ar      1 GTP         0.4884
     24 N7         -2.8846   -3.3047    0.3416 N.2       1 GTP        -0.5260
     25 C5         -3.5626   -2.1296    0.2052 C.ar      1 GTP         0.4178
     26 C6         -4.8477   -1.8989   -0.3942 C.ar      1 GTP         0.2530
     27 O6         -5.5373   -2.7819   -0.8881 O.2       1 GTP        -0.2755
     28 N1         -5.1895   -0.5407   -0.3318 N.pl3     1 GTP        -0.1604
     29 C2         -4.3899    0.4774    0.2398 C.ar      1 GTP         0.4468
     30 N2         -4.9233    1.7390    0.1898 N.pl3     1 GTP        -0.5618
     31 N3         -3.2159    0.2368    0.7822 N.2       1 GTP        -0.4271
     32 C4         -2.8678   -1.0679    0.7322 C.ar      1 GTP         0.0498
     33 HOA2       -2.7276    5.5023    0.1931 H         1 GTP         0.2010
     34 H5'        -1.1757    2.0497    0.6364 H         1 GTP        -0.0393
     35 H5''       -0.2069    3.2809    1.4872 H         1 GTP        -0.0393
     36 H4'         0.0402    1.7079    3.4342 H         1 GTP        -0.0393
     37 H3'         1.5907    1.4859    1.1353 H         1 GTP        -0.0393
     38 HO3'        2.6839   -0.1150    2.2479 H         1 GTP         0.2010
     39 H2'        -0.0017    0.0018    0.0005 H         1 GTP        -0.0393
     40 HO2'        2.0953   -0.9375    0.0709 H         1 GTP         0.2010
     41 H1'        -0.1998   -1.6319    2.6178 H         1 GTP        -0.0393
     42 H8         -0.9713   -3.6323    1.2352 H         1 GTP        -0.1369
     43 HN1        -6.0831   -0.2651   -0.7290 H         1 GTP         0.0865
     44 HN21       -4.3985    2.4878    0.5788 H         1 GTP         0.2048
     45 HN22       -5.8145    1.8572   -0.2335 H         1 GTP         0.2048
@<TRIPOS>BOND
     1    1    2 2
     2    1    3 1
     3    1    4 1
     4    1    5 1
     5    5    6 1
     6    6    7 2
     7    6    8 1
     8    6    9 1
     9    9   10 1
    10   10   11 2
    11   10   12 1
    12   10   13 1
    13   12   33 1
    14   13   14 1
    15   14   15 1
    16   14   34 1
    17   14   35 1
    18   15   16 1
    19   15   17 1
    20   15   36 1
    21   16   21 1
    22   17   18 1
    23   17   19 1
    24   17   37 1
    25   18   38 1
    26   19   20 1
    27   19   21 1
    28   19   39 1
    29   20   40 1
    30   21   22 1
    31   21   41 1
    32   22   23 ar
    33   22   32 ar
    34   23   24 ar
    35   23   42 1
    36   24   25 ar
    37   25   26 ar
    38   25   32 ar
    39   26   27 2
    40   26   28 ar
    41   28   29 ar
    42   28   43 1
    43   29   30 1
    44   29   31 ar
    45   30   44 1
    46   30   45 1
    47   31   32 ar
@<TRIPOS>SUBSTRUCTURE
     1 GTP         1 GROUP 0 A     ****
@<TRIPOS>MOLECULE
[[[5-(2-amino-6-oxo-1~{H}-purin-9-yl)-3,4-dihydroxy-tetrahydrofuran-2-yl]methoxy-hydroxy-phosphoryl]oxy-oxido-phosphoryl] phosphate
   45    47     1     0     0
SMALL
USER_CHARGES

@<TRIPOS>ATOM
      1 PG          2.5185    2.1867   -2.1389 P.3       1 GTP        -1.1921
      2 O1G         3.4631    3.3122   -2.5471 O.co2     1 GTP         0.3195
      3 O2G         3.0347    1.3130   -1.0008 O.co2     1 GTP         0.3195
      4 O3G         1.9384    1.4023   -3.3114 O.co2     1 GTP         0.3195
      5 O3B         1.2107    2.9607   -1.5013 O.3       1 GTP         0.4672
      6 PB          0.1709    4.0449   -2.1411 P.3       1 GTP        -1.1062
      7 O1B         0.9166    5.3287   -2.4301 O.co2     1 GTP         0.3195
      8 O2B        -0.6317    3.3525   -3.2205 O.co2     1 GTP         0.3195
      9 O3A        -0.7944    4.2793   -0.8464 O.3       1 GTP         0.4672
     10 PA         -0.4427    4.8271    0.6349 P.3       1 GTP        -0.9715
     11 O1A         0.5394    5.9624    0.6510 O.2       1 GTP         0.2707
     12 O2A        -1.8876    5.1681    1.2779 O.3       1 GTP         0.0326
     13 O5'         0.0166    3.5128    1.4591 O.3       1 GTP         0.1618
     14 C5'        -0.8811    2.4285    1.6206 C.3       1 GTP         0.1504
     15 C4'        -0.1994    1.3333    2.4288 C.3       1 GTP         0.1111
     16 O4'        -1.1285    0.2356    2.5840 O.3       1 GTP        -0.1436
     17 C3'         1.0324    0.7610    1.7344 C.3       1 GTP         0.1111
     18 O3'         1.9175    0.2377    2.7247 O.3       1 GTP        -0.2728
     19 C2'         0.4468   -0.3802    0.9263 C.3       1 GTP         0.1111
     20 O2'         1.3993   -1.3703    0.5961 O.3       1 GTP        -0.2728
     21 C1'        -0.6159   -0.9100    1.8769 C.3       1 GTP         0.0918
     22 N9         -1.7127   -1.6108    1.2130 N.pl3     1 GTP        -0.0449
     23 C8         -1.7695   -2.9586    0.9546 C.ar      1 GTP         0.4884
     24 N7         -2.8846   -3.3047    0.3416 N.2       1 GTP        -0.5260
     25 C5         -3.5626   -2.1296    0.2052 C.ar      1 GTP         0.4178
     26 C6         -4.8477   -1.8989   -0.3942 C.ar      1 GTP         0.2530
     27 O6         -5.5373   -2.7819   -0.8881 O.2       1 GTP        -0.2755
     28 N1         -5.1895   -0.5407   -0.3318 N.pl3     1 GTP        -0.1604
     29 C2         -4.3899    0.4774    0.2398 C.ar      1 GTP         0.4468
     30 N2         -4.9233    1.7390    0.1898 N.pl3     1 GTP        -0.5618
     31 N3         -3.2159    0.2368    0.7822 N.2       1 GTP        -0.4271
     32 C4         -2.8678   -1.0679    0.7322 C.ar      1 GTP         0.0498
     33 HOA2       -1.9352    5.4469    2.2171 H         1 GTP         0.2010
     34 H5'        -1.7777    2.7838    2.1390 H         1 GTP        -0.0393
     35 H5''       -1.1661    2.0530    0.6323 H         1 GTP        -0.0393
     36 H4'         0.0402    1.7079    3.4342 H         1 GTP        -0.0393
     37 H3'         1.5907    1.4859    1.1353 H         1 GTP        -0.0393
     38 HO3'        2.6839   -0.1150    2.2479 H         1 GTP         0.2010
     39 H2'        -0.0017    0.0018    0.0005 H         1 GTP        -0.0393
     40 HO2'        2.0953   -0.9375    0.0709 H         1 GTP         0.2010
     41 H1'        -0.1998   -1.6319    2.6178 H         1 GTP        -0.0393
     42 H8         -0.9713   -3.6323    1.2352 H         1 GTP        -0.1369
     43 HN1        -6.0831   -0.2651   -0.7290 H         1 GTP         0.0865
     44 HN21       -4.3985    2.4878    0.5788 H         1 GTP         0.2048
     45 HN22       -5.8145    1.8572   -0.2335 H         1 GTP         0.2048
@<TRIPOS>BOND
     1    1    2 2
     2    1    3 1
     3    1    4 1
     4    1    5 1
     5    5    6 1
     6    6    7 2
     7    6    8 1
     8    6    9 1
     9    9   10 1
    10   10   11 2
    11   10   12 1
    12   10   13 1
    13   12   33 1
    14   13   14 1
    15   14   15 1
    16   14   34 1
    17   14   35 1
    18   15   16 1
    19   15   17 1
    20   15   36 1
    21   16   21 1
    22   17   18 1
    23   17   19 1
    24   17   37 1
    25   18   38 1
    26   19   20 1
    27   19   21 1
    28   19   39 1
    29   20   40 1
    30   21   22 1
    31   21   41 1
    32   22   23 ar
    33   22   32 ar
    34   23   24 ar
    35   23   42 1
    36   24   25 ar
    37   25   26 ar
    38   25   32 ar
    39   26   27 2
    40   26   28 ar
    41   28   29 ar
    42   28   43 1
    43   29   30 1
    44   29   31 ar
    45   30   44 1
    46   30   45 1
    47   31   32 ar
@<TRIPOS>SUBSTRUCTURE
     1 GTP         1 GROUP 0 A     ****
@<TRIPOS>MOLECULE
[[[5-(2-amino-6-oxo-1~{H}-purin-9-yl)-3,4-dihydroxy-tetrahydrofuran-2-yl]methoxy-hydroxy-phosphoryl]oxy-oxido-phosphoryl] phosphate
   45    47     1     0     0
SMALL
USER_CHARGES

@<TRIPOS>ATOM
      1 PG          2.4862    5.1024   -3.2096 P.3       1 GTP        -1.1921
      2 O1G         1.9189    4.9164   -4.6128 O.co2     1 GTP         0.3195
      3 O2G         2.9771    6.5148   -2.9109 O.co2     1 GTP         0.3195
      4 O3G         3.4511    4.0037   -2.7754 O.co2     1 GTP         0.3195
      5 O3B         1.1893    4.8996   -2.2133 O.3       1 GTP         0.4672
      6 PB          0.1754    3.6390   -1.9920 P.3       1 GTP        -1.1062
      7 O1B        -0.6333    3.4322   -3.2533 O.co2     1 GTP         0.3195
      8 O2B         0.9604    2.5013   -1.3770 O.co2     1 GTP         0.3195
      9 O3A        -0.7944    4.2793   -0.8464 O.3       1 GTP         0.4672
     10 PA         -0.4427    4.8271    0.6349 P.3       1 GTP        -0.9715
     11 O1A         0.5394    5.9624    0.6510 O.2       1 GTP         0.2707
     12 O2A        -1.8876    5.1681    1.2779 O.3       1 GTP         0.0326
     13 O5'         0.0166    3.5128    1.4591 O.3       1 GTP         0.1618
     14 C5'        -0.8811    2.4285    1.6206 C.3       1 GTP         0.1504
     15 C4'        -0.1994    1.3333    2.4288 C.3       1 GTP         0.1111
     16 O4'        -1.1285    0.2356    2.5840 O.3       1 GTP        -0.1436
     17 C3'         1.0324    0.7610    1.7344 C.3       1 GTP         0.1111
     18 O3'         1.9175    0.2377    2.7247 O.3       1 GTP        -0.2728
     19 C2'         0.4468   -0.3802    0.9263 C.3       1 GTP         0.1111
     20 O2'         1.3993   -1.3703    0.5961 O.3       1 GTP        -0.2728
     21 C1'        -0.6159   -0.9100    1.8769 C.3       1 GTP         0.0918
     22 N9         -1.7127   -1.6108    1.2130 N.pl3     1 GTP        -0.0449
     23 C8         -2.8667   -1.0365    0.7385 C.ar      1 GTP         0.4884
     24 N7         -3.6757   -1.9196    0.1868 N.2       1 GTP        -0.5260
     25 C5         -3.0088   -3.1018    0.3164 C.ar      1 GTP         0.4178
     26 C6         -3.4148   -4.4130   -0.1079 C.ar      1 GTP         0.2530
     27 O6         -4.4753   -4.6480   -0.6732 O.2       1 GTP        -0.2755
     28 N1         -2.4377   -5.3653    0.2144 N.pl3     1 GTP        -0.1604
     29 C2         -1.2132   -5.0902    0.8680 C.ar      1 GTP         0.4468
     30 N2         -0.4066   -6.1772    1.0834 N.pl3     1 GTP        -0.5618
     31 N3         -0.8672   -3.8786    1.2457 N.2       1 GTP        -0.4271
     32 C4         -1.7966   -2.9451    0.9439 C.ar      1 GTP         0.0498
     33 HOA2       -1.9352    5.4469    2.2171 H         1 GTP         0.2010
     34 H5'        -1.7777    2.7838    2.1390 H         1 GTP        -0.0393
     35 H5''       -1.1661    2.0530    0.6323 H         1 GTP        -0.0393
     36 H4'         0.0402    1.7079    3.4342 H         1 GTP        -0.0393
     37 H3'         1.5907    1.4859    1.1353 H         1 GTP        -0.0393
     38 HO3'        2.6839   -0.1150    2.2479 H         1 GTP         0.2010
     39 H2'        -0.0017    0.0018    0.0005 H         1 GTP        -0.0393
     40 HO2'        2.0953   -0.9375    0.0709 H         1 GTP         0.2010
     41 H1'        -0.1998   -1.6319    2.6178 H         1 GTP        -0.0393
     42 H8         -3.0589    0.0244    0.8247 H         1 GTP        -0.1369
     43 HN1        -2.6238   -6.3307   -0.0420 H         1 GTP         0.0865
     44 HN21        0.4646   -6.0341    1.5394 H         1 GTP         0.2048
     45 HN22       -0.7235   -7.0673    0.7753 H         1 GTP         0.2048
@<TRIPOS>BOND
     1    1    2 2
     2    1    3 1
     3    1    4 1
     4    1    5 1
     5    5    6 1
     6    6    7 2
     7    6    8 1
     8    6    9 1
     9    9   10 1
    10   10   11 2
    11   10   12 1
    12   10   13 1
    13   12   33 1
    14   13   14 1
    15   14   15 1
    16   14   34 1
    17   14   35 1
    18   15   16 1
    19   15   17 1
    20   15   36 1
    21   16   21 1
    22   17   18 1
    23   17   19 1
    24   17   37 1
    25   18   38 1
    26   19   20 1
    27   19   21 1
    28   19   39 1
    29   20   40 1
    30   21   22 1
    31   21   41 1
    32   22   23 ar
    33   22   32 ar
    34   23   24 ar
    35   23   42 1
    36   24   25 ar
    37   25   26 ar
    38   25   32 ar
    39   26   27 2
    40   26   28 ar
    41   28   29 ar
    42   28   43 1
    43   29   30 1
    44   29   31 ar
    45   30   44 1
    46   30   45 1
    47   31   32 ar
@<TRIPOS>SUBSTRUCTURE
     1 GTP         1 GROUP 0 A     ****
@<TRIPOS>MOLECULE
[[[5-(2-amino-6-oxo-1~{H}-purin-9-yl)-3,4-dihydroxy-tetrahydrofuran-2-yl]methoxy-hydroxy-phosphoryl]oxy-oxido-phosphoryl] phosphate
   45    47     1     0     0
SMALL
USER_CHARGES

@<TRIPOS>ATOM
      1 PG         -2.2429    6.3794    6.5557 P.3       1 GTP        -1.1921
      2 O1G        -1.2491    7.5072    6.8125 O.co2     1 GTP         0.3195
      3 O2G        -3.7063    6.8025    6.6210 O.co2     1 GTP         0.3195
      4 O3G        -1.9337    5.0907    7.3109 O.co2     1 GTP         0.3195
      5 O3B        -2.0031    5.9740    4.9765 O.3       1 GTP         0.4672
      6 PB         -0.6830    5.4345    4.1812 P.3       1 GTP        -1.1062
      7 O1B         0.3609    6.5289    4.1638 O.co2     1 GTP         0.3195
      8 O2B        -0.3507    4.0518    4.6971 O.co2     1 GTP         0.3195
      9 O3A        -1.3176    5.2914    2.6847 O.3       1 GTP         0.4672
     10 PA         -2.5512    4.3890    2.1537 P.3       1 GTP        -0.9715
     11 O1A        -3.8625    4.6915    2.8192 O.2       1 GTP         0.2707
     12 O2A        -2.5345    4.6098    0.5511 O.3       1 GTP         0.0326
     13 O5'        -2.0394    2.8623    2.3117 O.3       1 GTP         0.1618
     14 C5'        -0.8811    2.4285    1.6206 C.3       1 GTP         0.1504
     15 C4'        -0.1994    1.3333    2.4288 C.3       1 GTP         0.1111
     16 O4'        -1.1285    0.2356    2.5840 O.3       1 GTP        -0.1436
     17 C3'         1.0324    0.7610    1.7344 C.3       1 GTP         0.1111
     18 O3'         1.9175    0.2377    2.7247 O.3       1 GTP        -0.2728
     19 C2'         0.4468   -0.3802    0.9263 C.3       1 GTP         0.1111
     20 O2'         1.3993   -1.3703    0.5961 O.3       1 GTP        -0.2728
     21 C1'        -0.6159   -0.9100    1.8769 C.3       1 GTP         0.0918
     22 N9         -1.7127   -1.6108    1.2130 N.pl3     1 GTP        -0.0449
     23 C8         -1.7695   -2.9586    0.9546 C.ar      1 GTP         0.4884
     24 N7         -2.8846   -3.3047    0.3416 N.2       1 GTP        -0.5260
     25 C5         -3.5626   -2.1296    0.2052 C.ar      1 GTP         0.4178
     26 C6         -4.8477   -1.8989   -0.3942 C.ar      1 GTP         0.2530
     27 O6         -5.5373   -2.7819   -0.8881 O.2       1 GTP        -0.2755
     28 N1         -5.1895   -0.5407   -0.3318 N.pl3     1 GTP        -0.1604
     29 C2         -4.3899    0.4774    0.2398 C.ar      1 GTP         0.4468
     30 N2         -4.9233    1.7390    0.1898 N.pl3     1 GTP        -0.5618
     31 N3         -3.2159    0.2368    0.7822 N.2       1 GTP        -0.4271
     32 C4         -2.8678   -1.0679    0.7322 C.ar      1 GTP         0.0498
     33 HOA2       -2.7276    5.5023    0.1931 H         1 GTP         0.2010
     34 H5'        -1.1757    2.0497    0.6364 H         1 GTP        -0.0393
     35 H5''       -0.2069    3.2809    1.4872 H         1 GTP        -0.0393
     36 H4'         0.0402    1.7079    3.4342 H         1 GTP        -0.0393
     37 H3'         1.5907    1.4859    1.1353 H         1 GTP        -0.0393
     38 HO3'        2.6839   -0.1150    2.2479 H         1 GTP         0.2010
     39 H2'        -0.0017    0.0018    0.0005 H         1 GTP        -0.0393
     40 HO2'        2.0953   -0.9375    0.0709 H         1 GTP         0.2010
     41 H1'        -0.1998   -1.6319    2.6178 H         1 GTP        -0.0393
     42 H8         -0.9713   -3.6323    1.2352 H         1 GTP        -0.1369
     43 HN1        -6.0831   -0.2651   -0.7290 H         1 GTP         0.0865
     44 HN21       -4.3985    2.4878    0.5788 H         1 GTP         0.2048
     45 HN22       -5.8145    1.8572   -0.2335 H         1 GTP         0.2048
@<TRIPOS>BOND
     1    1    2 2
     2    1    3 1
     3    1    4 1
     4    1    5 1
     5    5    6 1
     6    6    7 2
     7    6    8 1
     8    6    9 1
     9    9   10 1
    10   10   11 2
    11   10   12 1
    12   10   13 1
    13   12   33 1
    14   13   14 1
    15   14   15 1
    16   14   34 1
    17   14   35 1
    18   15   16 1
    19   15   17 1
    20   15   36 1
    21   16   21 1
    22   17   18 1
    23   17   19 1
    24   17   37 1
    25   18   38 1
    26   19   20 1
    27   19   21 1
    28   19   39 1
    29   20   40 1
    30   21   22 1
    31   21   41 1
    32   22   23 ar
    33   22   32 ar
    34   23   24 ar
    35   23   42 1
    36   24   25 ar
    37   25   26 ar
    38   25   32 ar
    39   26   27 2
    40   26   28 ar
    41   28   29 ar
    42   28   43 1
    43   29   30 1
    44   29   31 ar
    45   30   44 1
    46   30   45 1
    47   31   32 ar
@<TRIPOS>SUBSTRUCTURE
     1 GTP         1 GROUP 0 A     ****
@<TRIPOS>MOLECULE
[[[5-(2-amino-6-oxo-1~{H}-purin-9-yl)-3,4-dihydroxy-tetrahydrofuran-2-yl]methoxy-hydroxy-phosphoryl]oxy-oxido-phosphoryl] phosphate
   45    47     1     0     0
SMALL
USER_CHARGES

@<TRIPOS>ATOM
      1 PG          0.0078    7.7726    2.5692 P.3       1 GTP        -1.1921
      2 O1G         0.1743    6.4080    3.2292 O.co2     1 GTP         0.3195
      3 O2G         1.3147    8.4220    2.1272 O.co2     1 GTP         0.3195
      4 O3G        -0.9349    8.7144    3.3114 O.co2     1 GTP         0.3195
      5 O3B        -0.7877    7.4525    1.1618 O.3       1 GTP         0.4672
      6 PB         -2.2395    6.7664    0.8659 P.3       1 GTP        -1.1062
      7 O1B        -3.2994    7.4995    1.6576 O.co2     1 GTP         0.3195
      8 O2B        -2.3784    6.5763   -0.6285 O.co2     1 GTP         0.3195
      9 O3A        -1.9864    5.3082    1.5532 O.3       1 GTP         0.4672
     10 PA         -2.9678    4.0282    1.6820 P.3       1 GTP        -0.9715
     11 O1A        -4.2384    4.3035    2.4327 O.2       1 GTP         0.2707
     12 O2A        -3.1728    3.5385    0.1537 O.3       1 GTP         0.0326
     13 O5'        -2.0394    2.8623    2.3117 O.3       1 GTP         0.1618
     14 C5'        -0.8811    2.4285    1.6206 C.3       1 GTP         0.1504
     15 C4'        -0.1994    1.3333    2.4288 C.3       1 GTP         0.1111
     16 O4'        -1.1285    0.2356    2.5840 O.3       1 GTP        -0.1436
     17 C3'         1.0324    0.7610    1.7344 C.3       1 GTP         0.1111
     18 O3'         1.9175    0.2377    2.7247 O.3       1 GTP        -0.2728
     19 C2'         0.4468   -0.3802    0.9263 C.3       1 GTP         0.1111
     20 O2'         1.3993   -1.3703    0.5961 O.3       1 GTP        -0.2728
     21 C1'        -0.6159   -0.9100    1.8769 C.3       1 GTP         0.0918
     22 N9         -1.7127   -1.6108    1.2130 N.pl3     1 GTP        -0.0449
     23 C8         -2.8667   -1.0365    0.7385 C.ar      1 GTP         0.4884
     24 N7         -3.6757   -1.9196    0.1868 N.2       1 GTP        -0.5260
     25 C5         -3.0088   -3.1018    0.3164 C.ar      1 GTP         0.4178
     26 C6         -3.4148   -4.4130   -0.1079 C.ar      1 GTP         0.2530
     27 O6         -4.4753   -4.6480   -0.6732 O.2       1 GTP        -0.2755
     28 N1         -2.4377   -5.3653    0.2144 N.pl3     1 GTP        -0.1604
     29 C2         -1.2132   -5.0902    0.8680 C.ar      1 GTP         0.4468
     30 N2         -0.4066   -6.1772    1.0834 N.pl3     1 GTP        -0.5618
     31 N3         -0.8672   -3.8786    1.2457 N.2       1 GTP        -0.4271
     32 C4         -1.7966   -2.9451    0.9439 C.ar      1 GTP         0.0498
     33 HOA2       -3.6765    2.7144   -0.0170 H         1 GTP         0.2010
     34 H5'        -1.1757    2.0497    0.6364 H         1 GTP        -0.0393
     35 H5''       -0.2069    3.2809    1.4872 H         1 GTP        -0.0393
     36 H4'         0.0402    1.7079    3.4342 H         1 GTP        -0.0393
     37 H3'         1.5907    1.4859    1.1353 H         1 GTP        -0.0393
     38 HO3'        2.6839   -0.1150    2.2479 H         1 GTP         0.2010
     39 H2'        -0.0017    0.0018    0.0005 H         1 GTP        -0.0393
     40 HO2'        2.0953   -0.9375    0.0709 H         1 GTP         0.2010
     41 H1'        -0.1998   -1.6319    2.6178 H         1 GTP        -0.0393
     42 H8         -3.0589    0.0244    0.8247 H         1 GTP        -0.1369
     43 HN1        -2.6238   -6.3307   -0.0420 H         1 GTP         0.0865
     44 HN21        0.4646   -6.0341    1.5394 H         1 GTP         0.2048
     45 HN22       -0.7235   -7.0673    0.7753 H         1 GTP         0.2048
@<TRIPOS>BOND
     1    1    2 2
     2    1    3 1
     3    1    4 1
     4    1    5 1
     5    5    6 1
     6    6    7 2
     7    6    8 1
     8    6    9 1
     9    9   10 1
    10   10   11 2
    11   10   12 1
    12   10   13 1
    13   12   33 1
    14   13   14 1
    15   14   15 1
    16   14   34 1
    17   14   35 1
    18   15   16 1
    19   15   17 1
    20   15   36 1
    21   16   21 1
    22   17   18 1
    23   17   19 1
    24   17   37 1
    25   18   38 1
    26   19   20 1
    27   19   21 1
    28   19   39 1
    29   20   40 1
    30   21   22 1
    31   21   41 1
    32   22   23 ar
    33   22   32 ar
    34   23   24 ar
    35   23   42 1
    36   24   25 ar
    37   25   26 ar
    38   25   32 ar
    39   26   27 2
    40   26   28 ar
    41   28   29 ar
    42   28   43 1
    43   29   30 1
    44   29   31 ar
    45   30   44 1
    46   30   45 1
    47   31   32 ar
@<TRIPOS>SUBSTRUCTURE
     1 GTP         1 GROUP 0 A     ****
@<TRIPOS>MOLECULE
[[[5-(2-amino-6-oxo-1~{H}-purin-9-yl)-3,4-dihydroxy-tetrahydrofuran-2-yl]methoxy-hydroxy-phosphoryl]oxy-oxido-phosphoryl] phosphate
   45    47     1     0     0
SMALL
USER_CHARGES

@<TRIPOS>ATOM
      1 PG          2.4862    5.1024   -3.2096 P.3       1 GTP        -1.1921
      2 O1G         1.9189    4.9164   -4.6128 O.co2     1 GTP         0.3195
      3 O2G         2.9771    6.5148   -2.9109 O.co2     1 GTP         0.3195
      4 O3G         3.4511    4.0037   -2.7754 O.co2     1 GTP         0.3195
      5 O3B         1.1893    4.8996   -2.2133 O.3       1 GTP         0.4672
      6 PB          0.1754    3.6390   -1.9920 P.3       1 GTP        -1.1062
      7 O1B        -0.6333    3.4322   -3.2533 O.co2     1 GTP         0.3195
      8 O2B         0.9604    2.5013   -1.3770 O.co2     1 GTP         0.3195
      9 O3A        -0.7944    4.2793   -0.8464 O.3       1 GTP         0.4672
     10 PA         -0.4427    4.8271    0.6349 P.3       1 GTP        -0.9715
     11 O1A         0.5394    5.9624    0.6510 O.2       1 GTP         0.2707
     12 O2A        -1.8876    5.1681    1.2779 O.3       1 GTP         0.0326
     13 O5'         0.0166    3.5128    1.4591 O.3       1 GTP         0.1618
     14 C5'        -0.8811    2.4285    1.6206 C.3       1 GTP         0.1504
     15 C4'        -0.1994    1.3333    2.4288 C.3       1 GTP         0.1111
     16 O4'        -1.1285    0.2356    2.5840 O.3       1 GTP        -0.1436
     17 C3'         1.0324    0.7610    1.7344 C.3       1 GTP         0.1111
     18 O3'         1.9175    0.2377    2.7247 O.3       1 GTP        -0.2728
     19 C2'         0.4468   -0.3802    0.9263 C.3       1 GTP         0.1111
     20 O2'         1.3993   -1.3703    0.5961 O.3       1 GTP        -0.2728
     21 C1'        -0.6159   -0.9100    1.8769 C.3       1 GTP         0.0918
     22 N9         -1.7127   -1.6108    1.2130 N.pl3     1 GTP        -0.0449
     23 C8         -1.7695   -2.9586    0.9546 C.ar      1 GTP         0.4884
     24 N7         -2.8846   -3.3047    0.3416 N.2       1 GTP        -0.5260
     25 C5         -3.5626   -2.1296    0.2052 C.ar      1 GTP         0.4178
     26 C6         -4.8477   -1.8989   -0.3942 C.ar      1 GTP         0.2530
     27 O6         -5.5373   -2.7819   -0.8881 O.2       1 GTP        -0.2755
     28 N1         -5.1895   -0.5407   -0.3318 N.pl3     1 GTP        -0.1604
     29 C2         -4.3899    0.4774    0.2398 C.ar      1 GTP         0.4468
     30 N2         -4.9233    1.7390    0.1898 N.pl3     1 GTP        -0.5618
     31 N3         -3.2159    0.2368    0.7822 N.2       1 GTP        -0.4271
     32 C4         -2.8678   -1.0679    0.7322 C.ar      1 GTP         0.0498
     33 HOA2       -1.9352    5.4469    2.2171 H         1 GTP         0.2010
     34 H5'        -1.7777    2.7838    2.1390 H         1 GTP        -0.0393
     35 H5''       -1.1661    2.0530    0.6323 H         1 GTP        -0.0393
     36 H4'         0.0402    1.7079    3.4342 H         1 GTP        -0.0393
     37 H3'         1.5907    1.4859    1.1353 H         1 GTP        -0.0393
     38 HO3'        2.6839   -0.1150    2.2479 H         1 GTP         0.2010
     39 H2'        -0.0017    0.0018    0.0005 H         1 GTP        -0.0393
     40 HO2'        2.0953   -0.9375    0.0709 H         1 GTP         0.2010
     41 H1'        -0.1998   -1.6319    2.6178 H         1 GTP        -0.0393
     42 H8         -0.9713   -3.6323    1.2352 H         1 GTP        -0.1369
     43 HN1        -6.0831   -0.2651   -0.7290 H         1 GTP         0.0865
     44 HN21       -4.3985    2.4878    0.5788 H         1 GTP         0.2048
     45 HN22       -5.8145    1.8572   -0.2335 H         1 GTP         0.2048
@<TRIPOS>BOND
     1    1    2 2
     2    1    3 1
     3    1    4 1
     4    1    5 1
     5    5    6 1
     6    6    7 2
     7    6    8 1
     8    6    9 1
     9    9   10 1
    10   10   11 2
    11   10   12 1
    12   10   13 1
    13   12   33 1
    14   13   14 1
    15   14   15 1
    16   14   34 1
    17   14   35 1
    18   15   16 1
    19   15   17 1
    20   15   36 1
    21   16   21 1
    22   17   18 1
    23   17   19 1
    24   17   37 1
    25   18   38 1
    26   19   20 1
    27   19   21 1
    28   19   39 1
    29   20   40 1
    30   21   22 1
    31   21   41 1
    32   22   23 ar
    33   22   32 ar
    34   23   24 ar
    35   23   42 1
    36   24   25 ar
    37   25   26 ar
    38   25   32 ar
    39   26   27 2
    40   26   28 ar
    41   28   29 ar
    42   28   43 1
    43   29   30 1
    44   29   31 ar
    45   30   44 1
    46   30   45 1
    47   31   32 ar
@<TRIPOS>SUBSTRUCTURE
     1 GTP         1 GROUP 0 A     ****
@<TRIPOS>MOLECULE
[[[5-(2-amino-6-oxo-1~{H}-purin-9-yl)-3,4-dihydroxy-tetrahydrofuran-2-yl]methoxy-hydroxy-phosphoryl]oxy-oxido-phosphoryl] phosphate
   45    47     1     0     0
SMALL
USER_CHARGES

@<TRIPOS>ATOM
      1 PG          0.6243    1.5716   -4.7507 P.3       1 GTP        -1.1921
      2 O1G         1.7026    2.4244   -5.4108 O.co2     1 GTP         0.3195
      3 O2G         1.0217    0.1167   -4.5265 O.co2     1 GTP         0.3195
      4 O3G        -0.7672    1.7514   -5.3489 O.co2     1 GTP         0.3195
      5 O3B         0.4806    2.1962   -3.2324 O.3       1 GTP         0.4672
      6 PB          0.0853    3.6899   -2.7046 P.3       1 GTP        -1.1062
      7 O1B         1.1751    4.6577   -3.1089 O.co2     1 GTP         0.3195
      8 O2B        -1.3603    3.9530   -3.0647 O.co2     1 GTP         0.3195
      9 O3A         0.1812    3.4344   -1.0958 O.3       1 GTP         0.4672
     10 PA         -0.0721    4.4467    0.1409 P.3       1 GTP        -0.9715
     11 O1A         0.8341    5.6436    0.1482 O.2       1 GTP         0.2707
     12 O2A        -1.6506    4.7887    0.0480 O.3       1 GTP         0.0326
     13 O5'         0.0166    3.5128    1.4591 O.3       1 GTP         0.1618
     14 C5'        -0.8811    2.4285    1.6206 C.3       1 GTP         0.1504
     15 C4'        -0.1994    1.3333    2.4288 C.3       1 GTP         0.1111
     16 O4'        -1.1285    0.2356    2.5840 O.3       1 GTP        -0.1436
     17 C3'         1.0324    0.7610    1.7344 C.3       1 GTP         0.1111
     18 O3'         1.9175    0.2377    2.7247 O.3       1 GTP        -0.2728
     19 C2'         0.4468   -0.3802    0.9263 C.3       1 GTP         0.1111
     20 O2'         1.3993   -1.3703    0.5961 O.3       1 GTP        -0.2728
     21 C1'        -0.6159   -0.9100    1.8769 C.3       1 GTP         0.0918
     22 N9         -1.7127   -1.6108    1.2130 N.pl3     1 GTP        -0.0449
     23 C8         -2.8667   -1.0365    0.7385 C.ar      1 GTP         0.4884
     24 N7         -3.6757   -1.9196    0.1868 N.2       1 GTP        -0.5260
     25 C5         -3.0088   -3.1018    0.3164 C.ar      1 GTP         0.4178
     26 C6         -3.4148   -4.4130   -0.1079 C.ar      1 GTP         0.2530
     27 O6         -4.4753   -4.6480   -0.6732 O.2       1 GTP        -0.2755
     28 N1         -2.4377   -5.3653    0.2144 N.pl3     1 GTP        -0.1604
     29 C2         -1.2132   -5.0902    0.8680 C.ar      1 GTP         0.4468
     30 N2         -0.4066   -6.1772    1.0834 N.pl3     1 GTP        -0.5618
     31 N3         -0.8672   -3.8786    1.2457 N.2       1 GTP        -0.4271
     32 C4         -1.7966   -2.9451    0.9439 C.ar      1 GTP         0.0498
     33 HOA2       -1.9838    5.2838   -0.7305 H         1 GTP         0.2010
     34 H5'        -1.7777    2.7838    2.1390 H         1 GTP        -0.0393
     35 H5''       -1.1661    2.0530    0.6323 H         1 GTP        -0.0393
     36 H4'         0.0402    1.7079    3.4342 H         1 GTP        -0.0393
     37 H3'         1.5907    1.4859    1.1353 H         1 GTP        -0.0393
     38 HO3'        2.6839   -0.1150    2.2479 H         1 GTP         0.2010
     39 H2'        -0.0017    0.0018    0.0005 H         1 GTP        -0.0393
     40 HO2'        2.0953   -0.9375    0.0709 H         1 GTP         0.2010
     41 H1'        -0.1998   -1.6319    2.6178 H         1 GTP        -0.0393
     42 H8         -3.0589    0.0244    0.8247 H         1 GTP        -0.1369
     43 HN1        -2.6238   -6.3307   -0.0420 H         1 GTP         0.0865
     44 HN21        0.4646   -6.0341    1.5394 H         1 GTP         0.2048
     45 HN22       -0.7235   -7.0673    0.7753 H         1 GTP         0.2048
@<TRIPOS>BOND
     1    1    2 2
     2    1    3 1
     3    1    4 1
     4    1    5 1
     5    5    6 1
     6    6    7 2
     7    6    8 1
     8    6    9 1
     9    9   10 1
    10   10   11 2
    11   10   12 1
    12   10   13 1
    13   12   33 1
    14   13   14 1
    15   14   15 1
    16   14   34 1
    17   14   35 1
    18   15   16 1
    19   15   17 1
    20   15   36 1
    21   16   21 1
    22   17   18 1
    23   17   19 1
    24   17   37 1
    25   18   38 1
    26   19   20 1
    27   19   21 1
    28   19   39 1
    29   20   40 1
    30   21   22 1
    31   21   41 1
    32   22   23 ar
    33   22   32 ar
    34   23   24 ar
    35   23   42 1
    36   24   25 ar
    37   25   26 ar
    38   25   32 ar
    39   26   27 2
    40   26   28 ar
    41   28   29 ar
    42   28   43 1
    43   29   30 1
    44   29   31 ar
    45   30   44 1
    46   30   45 1
    47   31   32 ar
@<TRIPOS>SUBSTRUCTURE
     1 GTP         1 GROUP 0 A     ****
@<TRIPOS>MOLECULE
[[[5-(2-amino-6-oxo-1~{H}-purin-9-yl)-3,4-dihydroxy-tetrahydrofuran-2-yl]methoxy-hydroxy-phosphoryl]oxy-oxido-phosphoryl] phosphate
   45    47     1     0     0
SMALL
USER_CHARGES

@<TRIPOS>ATOM
      1 PG         -4.3942    8.6538    1.7371 P.3       1 GTP        -1.1921
      2 O1G        -4.9841    8.6957    0.3314 O.co2     1 GTP         0.3195
      3 O2G        -5.4237    8.4698    2.8468 O.co2     1 GTP         0.3195
      4 O3G        -3.3674    9.7467    2.0162 O.co2     1 GTP         0.3195
      5 O3B        -3.5060    7.2661    1.7673 O.3       1 GTP         0.4672
      6 PB         -2.2395    6.7664    0.8659 P.3       1 GTP        -1.1062
      7 O1B        -2.7028    6.5584   -0.5588 O.co2     1 GTP         0.3195
      8 O2B        -1.0561    7.6564    1.1761 O.co2     1 GTP         0.3195
      9 O3A        -1.9864    5.3082    1.5532 O.3       1 GTP         0.4672
     10 PA         -2.9678    4.0282    1.6820 P.3       1 GTP        -0.9715
     11 O1A        -4.2384    4.3035    2.4327 O.2       1 GTP         0.2707
     12 O2A        -3.1728    3.5385    0.1537 O.3       1 GTP         0.0326
     13 O5'        -2.0394    2.8623    2.3117 O.3       1 GTP         0.1618
     14 C5'        -0.8811    2.4285    1.6206 C.3       1 GTP         0.1504
     15 C4'        -0.1994    1.3333    2.4288 C.3       1 GTP         0.1111
     16 O4'        -1.1285    0.2356    2.5840 O.3       1 GTP        -0.1436
     17 C3'         1.0324    0.7610    1.7344 C.3       1 GTP         0.1111
     18 O3'         1.9175    0.2377    2.7247 O.3       1 GTP        -0.2728
     19 C2'         0.4468   -0.3802    0.9263 C.3       1 GTP         0.1111
     20 O2'         1.3993   -1.3703    0.5961 O.3       1 GTP        -0.2728
     21 C1'        -0.6159   -0.9100    1.8769 C.3       1 GTP         0.0918
     22 N9         -1.7127   -1.6108    1.2130 N.pl3     1 GTP        -0.0449
     23 C8         -2.8667   -1.0365    0.7385 C.ar      1 GTP         0.4884
     24 N7         -3.6757   -1.9196    0.1868 N.2       1 GTP        -0.5260
     25 C5         -3.0088   -3.1018    0.3164 C.ar      1 GTP         0.4178
     26 C6         -3.4148   -4.4130   -0.1079 C.ar      1 GTP         0.2530
     27 O6         -4.4753   -4.6480   -0.6732 O.2       1 GTP        -0.2755
     28 N1         -2.4377   -5.3653    0.2144 N.pl3     1 GTP        -0.1604
     29 C2         -1.2132   -5.0902    0.8680 C.ar      1 GTP         0.4468
     30 N2         -0.4066   -6.1772    1.0834 N.pl3     1 GTP        -0.5618
     31 N3         -0.8672   -3.8786    1.2457 N.2       1 GTP        -0.4271
     32 C4         -1.7966   -2.9451    0.9439 C.ar      1 GTP         0.0498
     33 HOA2       -3.6765    2.7144   -0.0170 H         1 GTP         0.2010
     34 H5'        -1.1757    2.0497    0.6364 H         1 GTP        -0.0393
     35 H5''       -0.2069    3.2809    1.4872 H         1 GTP        -0.0393
     36 H4'         0.0402    1.7079    3.4342 H         1 GTP        -0.0393
     37 H3'         1.5907    1.4859    1.1353 H         1 GTP        -0.0393
     38 HO3'        2.6839   -0.1150    2.2479 H         1 GTP         0.2010
     39 H2'        -0.0017    0.0018    0.0005 H         1 GTP        -0.0393
     40 HO2'        2.0953   -0.9375    0.0709 H         1 GTP         0.2010
     41 H1'        -0.1998   -1.6319    2.6178 H         1 GTP        -0.0393
     42 H8         -3.0589    0.0244    0.8247 H         1 GTP        -0.1369
     43 HN1        -2.6238   -6.3307   -0.0420 H         1 GTP         0.0865
     44 HN21        0.4646   -6.0341    1.5394 H         1 GTP         0.2048
     45 HN22       -0.7235   -7.0673    0.7753 H         1 GTP         0.2048
@<TRIPOS>BOND
     1    1    2 2
     2    1    3 1
     3    1    4 1
     4    1    5 1
     5    5    6 1
     6    6    7 2
     7    6    8 1
     8    6    9 1
     9    9   10 1
    10   10   11 2
    11   10   12 1
    12   10   13 1
    13   12   33 1
    14   13   14 1
    15   14   15 1
    16   14   34 1
    17   14   35 1
    18   15   16 1
    19   15   17 1
    20   15   36 1
    21   16   21 1
    22   17   18 1
    23   17   19 1
    24   17   37 1
    25   18   38 1
    26   19   20 1
    27   19   21 1
    28   19   39 1
    29   20   40 1
    30   21   22 1
    31   21   41 1
    32   22   23 ar
    33   22   32 ar
    34   23   24 ar
    35   23   42 1
    36   24   25 ar
    37   25   26 ar
    38   25   32 ar
    39   26   27 2
    40   26   28 ar
    41   28   29 ar
    42   28   43 1
    43   29   30 1
    44   29   31 ar
    45   30   44 1
    46   30   45 1
    47   31   32 ar
@<TRIPOS>SUBSTRUCTURE
     1 GTP         1 GROUP 0 A     ****
@<TRIPOS>MOLECULE
[[[5-(2-amino-6-oxo-1~{H}-purin-9-yl)-3,4-dihydroxy-tetrahydrofuran-2-yl]methoxy-hydroxy-phosphoryl]oxy-oxido-phosphoryl] phosphate
   45    47     1     0     0
SMALL
USER_CHARGES

@<TRIPOS>ATOM
      1 PG         -2.9096    7.1367   -2.0286 P.3       1 GTP        -1.1921
      2 O1G        -1.7099    8.0558   -2.2321 O.co2     1 GTP         0.3195
      3 O2G        -3.0767    6.0713   -3.1066 O.co2     1 GTP         0.3195
      4 O3G        -4.2005    7.8653   -1.6687 O.co2     1 GTP         0.3195
      5 O3B        -2.5474    6.2865   -0.6641 O.3       1 GTP         0.4672
      6 PB         -2.2395    6.7664    0.8659 P.3       1 GTP        -1.1062
      7 O1B        -0.9425    7.5443    0.8847 O.co2     1 GTP         0.3195
      8 O2B        -3.5078    7.3563    1.4422 O.co2     1 GTP         0.3195
      9 O3A        -1.9864    5.3082    1.5532 O.3       1 GTP         0.4672
     10 PA         -2.9678    4.0282    1.6820 P.3       1 GTP        -0.9715
     11 O1A        -4.2384    4.3035    2.4327 O.2       1 GTP         0.2707
     12 O2A        -3.1728    3.5385    0.1537 O.3       1 GTP         0.0326
     13 O5'        -2.0394    2.8623    2.3117 O.3       1 GTP         0.1618
     14 C5'        -0.8811    2.4285    1.6206 C.3       1 GTP         0.1504
     15 C4'        -0.1994    1.3333    2.4288 C.3       1 GTP         0.1111
     16 O4'        -1.1285    0.2356    2.5840 O.3       1 GTP        -0.1436
     17 C3'         1.0324    0.7610    1.7344 C.3       1 GTP         0.1111
     18 O3'         1.9175    0.2377    2.7247 O.3       1 GTP        -0.2728
     19 C2'         0.4468   -0.3802    0.9263 C.3       1 GTP         0.1111
     20 O2'         1.3993   -1.3703    0.5961 O.3       1 GTP        -0.2728
     21 C1'        -0.6159   -0.9100    1.8769 C.3       1 GTP         0.0918
     22 N9         -1.7127   -1.6108    1.2130 N.pl3     1 GTP        -0.0449
     23 C8         -2.8667   -1.0365    0.7385 C.ar      1 GTP         0.4884
     24 N7         -3.6757   -1.9196    0.1868 N.2       1 GTP        -0.5260
     25 C5         -3.0088   -3.1018    0.3164 C.ar      1 GTP         0.4178
     26 C6         -3.4148   -4.4130   -0.1079 C.ar      1 GTP         0.2530
     27 O6         -4.4753   -4.6480   -0.6732 O.2       1 GTP        -0.2755
     28 N1         -2.4377   -5.3653    0.2144 N.pl3     1 GTP        -0.1604
     29 C2         -1.2132   -5.0902    0.8680 C.ar      1 GTP         0.4468
     30 N2         -0.4066   -6.1772    1.0834 N.pl3     1 GTP        -0.5618
     31 N3         -0.8672   -3.8786    1.2457 N.2       1 GTP        -0.4271
     32 C4         -1.7966   -2.9451    0.9439 C.ar      1 GTP         0.0498
     33 HOA2       -3.6406    4.1286   -0.4749 H         1 GTP         0.2010
     34 H5'        -1.1757    2.0497    0.6364 H         1 GTP        -0.0393
     35 H5''       -0.2069    3.2809    1.4872 H         1 GTP        -0.0393
     36 H4'         0.0402    1.7079    3.4342 H         1 GTP        -0.0393
     37 H3'         1.5907    1.4859    1.1353 H         1 GTP        -0.0393
     38 HO3'        2.6839   -0.1150    2.2479 H         1 GTP         0.2010
     39 H2'        -0.0017    0.0018    0.0005 H         1 GTP        -0.0393
     40 HO2'        2.0953   -0.9375    0.0709 H         1 GTP         0.2010
     41 H1'        -0.1998   -1.6319    2.6178 H         1 GTP        -0.0393
     42 H8         -3.0589    0.0244    0.8247 H         1 GTP        -0.1369
     43 HN1        -2.6238   -6.3307   -0.0420 H         1 GTP         0.0865
     44 HN21        0.4646   -6.0341    1.5394 H         1 GTP         0.2048
     45 HN22       -0.7235   -7.0673    0.7753 H         1 GTP         0.2048
@<TRIPOS>BOND
     1    1    2 2
     2    1    3 1
     3    1    4 1
     4    1    5 1
     5    5    6 1
     6    6    7 2
     7    6    8 1
     8    6    9 1
     9    9   10 1
    10   10   11 2
    11   10   12 1
    12   10   13 1
    13   12   33 1
    14   13   14 1
    15   14   15 1
    16   14   34 1
    17   14   35 1
    18   15   16 1
    19   15   17 1
    20   15   36 1
    21   16   21 1
    22   17   18 1
    23   17   19 1
    24   17   37 1
    25   18   38 1
    26   19   20 1
    27   19   21 1
    28   19   39 1
    29   20   40 1
    30   21   22 1
    31   21   41 1
    32   22   23 ar
    33   22   32 ar
    34   23   24 ar
    35   23   42 1
    36   24   25 ar
    37   25   26 ar
    38   25   32 ar
    39   26   27 2
    40   26   28 ar
    41   28   29 ar
    42   28   43 1
    43   29   30 1
    44   29   31 ar
    45   30   44 1
    46   30   45 1
    47   31   32 ar
@<TRIPOS>SUBSTRUCTURE
     1 GTP         1 GROUP 0 A     ****
@<TRIPOS>MOLECULE
[[[5-(2-amino-6-oxo-1~{H}-purin-9-yl)-3,4-dihydroxy-tetrahydrofuran-2-yl]methoxy-hydroxy-phosphoryl]oxy-oxido-phosphoryl] phosphate
   45    47     1     0     0
SMALL
USER_CHARGES

@<TRIPOS>ATOM
      1 PG          1.6317    7.2184    4.8324 P.3       1 GTP        -1.1921
      2 O1G         2.4317    6.0466    5.3914 O.co2     1 GTP         0.3195
      3 O2G         2.4192    8.1290    3.8966 O.co2     1 GTP         0.3195
      4 O3G         0.8044    7.9636    5.8749 O.co2     1 GTP         0.3195
      5 O3B         0.4987    6.5157    3.8638 O.3       1 GTP         0.4672
      6 PB         -0.6830    5.4345    4.1812 P.3       1 GTP        -1.1062
      7 O1B        -0.0509    4.1164    4.5692 O.co2     1 GTP         0.3195
      8 O2B        -1.7060    6.0990    5.0760 O.co2     1 GTP         0.3195
      9 O3A        -1.3176    5.2914    2.6847 O.3       1 GTP         0.4672
     10 PA         -2.5512    4.3890    2.1537 P.3       1 GTP        -0.9715
     11 O1A        -3.8625    4.6915    2.8192 O.2       1 GTP         0.2707
     12 O2A        -2.5345    4.6098    0.5511 O.3       1 GTP         0.0326
     13 O5'        -2.0394    2.8623    2.3117 O.3       1 GTP         0.1618
     14 C5'        -0.8811    2.4285    1.6206 C.3       1 GTP         0.1504
     15 C4'        -0.1994    1.3333    2.4288 C.3       1 GTP         0.1111
     16 O4'        -1.1285    0.2356    2.5840 O.3       1 GTP        -0.1436
     17 C3'         1.0324    0.7610    1.7344 C.3       1 GTP         0.1111
     18 O3'         1.9175    0.2377    2.7247 O.3       1 GTP        -0.2728
     19 C2'         0.4468   -0.3802    0.9263 C.3       1 GTP         0.1111
     20 O2'         1.3993   -1.3703    0.5961 O.3       1 GTP        -0.2728
     21 C1'        -0.6159   -0.9100    1.8769 C.3       1 GTP         0.0918
     22 N9         -1.7127   -1.6108    1.2130 N.pl3     1 GTP        -0.0449
     23 C8         -2.8667   -1.0365    0.7385 C.ar      1 GTP         0.4884
     24 N7         -3.6757   -1.9196    0.1868 N.2       1 GTP        -0.5260
     25 C5         -3.0088   -3.1018    0.3164 C.ar      1 GTP         0.4178
     26 C6         -3.4148   -4.4130   -0.1079 C.ar      1 GTP         0.2530
     27 O6         -4.4753   -4.6480   -0.6732 O.2       1 GTP        -0.2755
     28 N1         -2.4377   -5.3653    0.2144 N.pl3     1 GTP        -0.1604
     29 C2         -1.2132   -5.0902    0.8680 C.ar      1 GTP         0.4468
     30 N2         -0.4066   -6.1772    1.0834 N.pl3     1 GTP        -0.5618
     31 N3         -0.8672   -3.8786    1.2457 N.2       1 GTP        -0.4271
     32 C4         -1.7966   -2.9451    0.9439 C.ar      1 GTP         0.0498
     33 HOA2       -3.1540    4.0918   -0.0058 H         1 GTP         0.2010
     34 H5'        -1.1757    2.0497    0.6364 H         1 GTP        -0.0393
     35 H5''       -0.2069    3.2809    1.4872 H         1 GTP        -0.0393
     36 H4'         0.0402    1.7079    3.4342 H         1 GTP        -0.0393
     37 H3'         1.5907    1.4859    1.1353 H         1 GTP        -0.0393
     38 HO3'        2.6839   -0.1150    2.2479 H         1 GTP         0.2010
     39 H2'        -0.0017    0.0018    0.0005 H         1 GTP        -0.0393
     40 HO2'        2.0953   -0.9375    0.0709 H         1 GTP         0.2010
     41 H1'        -0.1998   -1.6319    2.6178 H         1 GTP        -0.0393
     42 H8         -3.0589    0.0244    0.8247 H         1 GTP        -0.1369
     43 HN1        -2.6238   -6.3307   -0.0420 H         1 GTP         0.0865
     44 HN21        0.4646   -6.0341    1.5394 H         1 GTP         0.2048
     45 HN22       -0.7235   -7.0673    0.7753 H         1 GTP         0.2048
@<TRIPOS>BOND
     1    1    2 2
     2    1    3 1
     3    1    4 1
     4    1    5 1
     5    5    6 1
     6    6    7 2
     7    6    8 1
     8    6    9 1
     9    9   10 1
    10   10   11 2
    11   10   12 1
    12   10   13 1
    13   12   33 1
    14   13   14 1
    15   14   15 1
    16   14   34 1
    17   14   35 1
    18   15   16 1
    19   15   17 1
    20   15   36 1
    21   16   21 1
    22   17   18 1
    23   17   19 1
    24   17   37 1
    25   18   38 1
    26   19   20 1
    27   19   21 1
    28   19   39 1
    29   20   40 1
    30   21   22 1
    31   21   41 1
    32   22   23 ar
    33   22   32 ar
    34   23   24 ar
    35   23   42 1
    36   24   25 ar
    37   25   26 ar
    38   25   32 ar
    39   26   27 2
    40   26   28 ar
    41   28   29 ar
    42   28   43 1
    43   29   30 1
    44   29   31 ar
    45   30   44 1
    46   30   45 1
    47   31   32 ar
@<TRIPOS>SUBSTRUCTURE
     1 GTP         1 GROUP 0 A     ****
@<TRIPOS>MOLECULE
[[[5-(2-amino-6-oxo-1~{H}-purin-9-yl)-3,4-dihydroxy-tetrahydrofuran-2-yl]methoxy-hydroxy-phosphoryl]oxy-oxido-phosphoryl] phosphate
   45    47     1     0     0
SMALL
USER_CHARGES

@<TRIPOS>ATOM
      1 PG          1.3246    8.2776    3.7458 P.3       1 GTP        -1.1921
      2 O1G         0.4814    9.1222    4.6951 O.co2     1 GTP         0.3195
      3 O2G         2.5578    7.6508    4.3871 O.co2     1 GTP         0.3195
      4 O3G         1.5917    8.9347    2.3954 O.co2     1 GTP         0.3195
      5 O3B         0.3597    6.9949    3.3722 O.3       1 GTP         0.4672
      6 PB         -1.1108    6.9100    2.6676 P.3       1 GTP        -1.1062
      7 O1B        -2.1329    7.5403    3.5872 O.co2     1 GTP         0.3195
      8 O2B        -0.9750    7.3625    1.2304 O.co2     1 GTP         0.3195
      9 O3A        -1.3176    5.2914    2.6847 O.3       1 GTP         0.4672
     10 PA         -2.5512    4.3890    2.1537 P.3       1 GTP        -0.9715
     11 O1A        -3.8625    4.6915    2.8192 O.2       1 GTP         0.2707
     12 O2A        -2.5345    4.6098    0.5511 O.3       1 GTP         0.0326
     13 O5'        -2.0394    2.8623    2.3117 O.3       1 GTP         0.1618
     14 C5'        -0.8811    2.4285    1.6206 C.3       1 GTP         0.1504
     15 C4'        -0.1994    1.3333    2.4288 C.3       1 GTP         0.1111
     16 O4'        -1.1285    0.2356    2.5840 O.3       1 GTP        -0.1436
     17 C3'         1.0324    0.7610    1.7344 C.3       1 GTP         0.1111
     18 O3'         1.9175    0.2377    2.7247 O.3       1 GTP        -0.2728
     19 C2'         0.4468   -0.3802    0.9263 C.3       1 GTP         0.1111
     20 O2'         1.3993   -1.3703    0.5961 O.3       1 GTP        -0.2728
     21 C1'        -0.6159   -0.9100    1.8769 C.3       1 GTP         0.0918
     22 N9         -1.7127   -1.6108    1.2130 N.pl3     1 GTP        -0.0449
     23 C8         -1.7695   -2.9586    0.9546 C.ar      1 GTP         0.4884
     24 N7         -2.8846   -3.3047    0.3416 N.2       1 GTP        -0.5260
     25 C5         -3.5626   -2.1296    0.2052 C.ar      1 GTP         0.4178
     26 C6         -4.8477   -1.8989   -0.3942 C.ar      1 GTP         0.2530
     27 O6         -5.5373   -2.7819   -0.8881 O.2       1 GTP        -0.2755
     28 N1         -5.1895   -0.5407   -0.3318 N.pl3     1 GTP        -0.1604
     29 C2         -4.3899    0.4774    0.2398 C.ar      1 GTP         0.4468
     30 N2         -4.9233    1.7390    0.1898 N.pl3     1 GTP        -0.5618
     31 N3         -3.2159    0.2368    0.7822 N.2       1 GTP        -0.4271
     32 C4         -2.8678   -1.0679    0.7322 C.ar      1 GTP         0.0498
     33 HOA2       -2.7276    5.5023    0.1931 H         1 GTP         0.2010
     34 H5'        -1.1757    2.0497    0.6364 H         1 GTP        -0.0393
     35 H5''       -0.2069    3.2809    1.4872 H         1 GTP        -0.0393
     36 H4'         0.0402    1.7079    3.4342 H         1 GTP        -0.0393
     37 H3'         1.5907    1.4859    1.1353 H         1 GTP        -0.0393
     38 HO3'        2.6839   -0.1150    2.2479 H         1 GTP         0.2010
     39 H2'        -0.0017    0.0018    0.0005 H         1 GTP        -0.0393
     40 HO2'        2.0953   -0.9375    0.0709 H         1 GTP         0.2010
     41 H1'        -0.1998   -1.6319    2.6178 H         1 GTP        -0.0393
     42 H8         -0.9713   -3.6323    1.2352 H         1 GTP        -0.1369
     43 HN1        -6.0831   -0.2651   -0.7290 H         1 GTP         0.0865
     44 HN21       -4.3985    2.4878    0.5788 H         1 GTP         0.2048
     45 HN22       -5.8145    1.8572   -0.2335 H         1 GTP         0.2048
@<TRIPOS>BOND
     1    1    2 2
     2    1    3 1
     3    1    4 1
     4    1    5 1
     5    5    6 1
     6    6    7 2
     7    6    8 1
     8    6    9 1
     9    9   10 1
    10   10   11 2
    11   10   12 1
    12   10   13 1
    13   12   33 1
    14   13   14 1
    15   14   15 1
    16   14   34 1
    17   14   35 1
    18   15   16 1
    19   15   17 1
    20   15   36 1
    21   16   21 1
    22   17   18 1
    23   17   19 1
    24   17   37 1
    25   18   38 1
    26   19   20 1
    27   19   21 1
    28   19   39 1
    29   20   40 1
    30   21   22 1
    31   21   41 1
    32   22   23 ar
    33   22   32 ar
    34   23   24 ar
    35   23   42 1
    36   24   25 ar
    37   25   26 ar
    38   25   32 ar
    39   26   27 2
    40   26   28 ar
    41   28   29 ar
    42   28   43 1
    43   29   30 1
    44   29   31 ar
    45   30   44 1
    46   30   45 1
    47   31   32 ar
@<TRIPOS>SUBSTRUCTURE
     1 GTP         1 GROUP 0 A     ****
@<TRIPOS>MOLECULE
[[[5-(2-amino-6-oxo-1~{H}-purin-9-yl)-3,4-dihydroxy-tetrahydrofuran-2-yl]methoxy-hydroxy-phosphoryl]oxy-oxido-phosphoryl] phosphate
   45    47     1     0     0
SMALL
USER_CHARGES

@<TRIPOS>ATOM
      1 PG          0.0054    8.2019   -0.8515 P.3       1 GTP        -1.1921
      2 O1G        -0.6151    9.4201   -0.1759 O.co2     1 GTP         0.3195
      3 O2G         1.5094    8.0635   -0.6420 O.co2     1 GTP         0.3195
      4 O3G        -0.4438    7.9914   -2.2939 O.co2     1 GTP         0.3195
      5 O3B        -0.6406    6.9154   -0.0494 O.3       1 GTP         0.4672
      6 PB         -2.1849    6.4256    0.1543 P.3       1 GTP        -1.1062
      7 O1B        -2.9167    7.4469    0.9962 O.co2     1 GTP         0.3195
      8 O2B        -2.7272    5.9950   -1.1908 O.co2     1 GTP         0.3195
      9 O3A        -1.9211    5.0929    1.0583 O.3       1 GTP         0.4672
     10 PA         -2.9678    4.0282    1.6820 P.3       1 GTP        -0.9715
     11 O1A        -3.9620    4.6310    2.6316 O.2       1 GTP         0.2707
     12 O2A        -3.6147    3.3111    0.3840 O.3       1 GTP         0.0326
     13 O5'        -2.0394    2.8623    2.3117 O.3       1 GTP         0.1618
     14 C5'        -0.8811    2.4285    1.6206 C.3       1 GTP         0.1504
     15 C4'        -0.1994    1.3333    2.4288 C.3       1 GTP         0.1111
     16 O4'        -1.1285    0.2356    2.5840 O.3       1 GTP        -0.1436
     17 C3'         1.0324    0.7610    1.7344 C.3       1 GTP         0.1111
     18 O3'         1.9175    0.2377    2.7247 O.3       1 GTP        -0.2728
     19 C2'         0.4468   -0.3802    0.9263 C.3       1 GTP         0.1111
     20 O2'         1.3993   -1.3703    0.5961 O.3       1 GTP        -0.2728
     21 C1'        -0.6159   -0.9100    1.8769 C.3       1 GTP         0.0918
     22 N9         -1.7127   -1.6108    1.2130 N.pl3     1 GTP        -0.0449
     23 C8         -2.8667   -1.0365    0.7385 C.ar      1 GTP         0.4884
     24 N7         -3.6757   -1.9196    0.1868 N.2       1 GTP        -0.5260
     25 C5         -3.0088   -3.1018    0.3164 C.ar      1 GTP         0.4178
     26 C6         -3.4148   -4.4130   -0.1079 C.ar      1 GTP         0.2530
     27 O6         -4.4753   -4.6480   -0.6732 O.2       1 GTP        -0.2755
     28 N1         -2.4377   -5.3653    0.2144 N.pl3     1 GTP        -0.1604
     29 C2         -1.2132   -5.0902    0.8680 C.ar      1 GTP         0.4468
     30 N2         -0.4066   -6.1772    1.0834 N.pl3     1 GTP        -0.5618
     31 N3         -0.8672   -3.8786    1.2457 N.2       1 GTP        -0.4271
     32 C4         -1.7966   -2.9451    0.9439 C.ar      1 GTP         0.0498
     33 HOA2       -4.2316    2.5598    0.5151 H         1 GTP         0.2010
     34 H5'        -1.1757    2.0497    0.6364 H         1 GTP        -0.0393
     35 H5''       -0.2069    3.2809    1.4872 H         1 GTP        -0.0393
     36 H4'         0.0402    1.7079    3.4342 H         1 GTP        -0.0393
     37 H3'         1.5907    1.4859    1.1353 H         1 GTP        -0.0393
     38 HO3'        2.6839   -0.1150    2.2479 H         1 GTP         0.2010
     39 H2'        -0.0017    0.0018    0.0005 H         1 GTP        -0.0393
     40 HO2'        2.0953   -0.9375    0.0709 H         1 GTP         0.2010
     41 H1'        -0.1998   -1.6319    2.6178 H         1 GTP        -0.0393
     42 H8         -3.0589    0.0244    0.8247 H         1 GTP        -0.1369
     43 HN1        -2.6238   -6.3307   -0.0420 H         1 GTP         0.0865
     44 HN21        0.4646   -6.0341    1.5394 H         1 GTP         0.2048
     45 HN22       -0.7235   -7.0673    0.7753 H         1 GTP         0.2048
@<TRIPOS>BOND
     1    1    2 2
     2    1    3 1
     3    1    4 1
     4    1    5 1
     5    5    6 1
     6    6    7 2
     7    6    8 1
     8    6    9 1
     9    9   10 1
    10   10   11 2
    11   10   12 1
    12   10   13 1
    13   12   33 1
    14   13   14 1
    15   14   15 1
    16   14   34 1
    17   14   35 1
    18   15   16 1
    19   15   17 1
    20   15   36 1
    21   16   21 1
    22   17   18 1
    23   17   19 1
    24   17   37 1
    25   18   38 1
    26   19   20 1
    27   19   21 1
    28   19   39 1
    29   20   40 1
    30   21   22 1
    31   21   41 1
    32   22   23 ar
    33   22   32 ar
    34   23   24 ar
    35   23   42 1
    36   24   25 ar
    37   25   26 ar
    38   25   32 ar
    39   26   27 2
    40   26   28 ar
    41   28   29 ar
    42   28   43 1
    43   29   30 1
    44   29   31 ar
    45   30   44 1
    46   30   45 1
    47   31   32 ar
@<TRIPOS>SUBSTRUCTURE
     1 GTP         1 GROUP 0 A     ****
@<TRIPOS>MOLECULE
[[[5-(2-amino-6-oxo-1~{H}-purin-9-yl)-3,4-dihydroxy-tetrahydrofuran-2-yl]methoxy-hydroxy-phosphoryl]oxy-oxido-phosphoryl] phosphate
   45    47     1     0     0
SMALL
USER_CHARGES

@<TRIPOS>ATOM
      1 PG          0.6243    1.5716   -4.7507 P.3       1 GTP        -1.1921
      2 O1G         1.7026    2.4244   -5.4108 O.co2     1 GTP         0.3195
      3 O2G         1.0217    0.1167   -4.5265 O.co2     1 GTP         0.3195
      4 O3G        -0.7672    1.7514   -5.3489 O.co2     1 GTP         0.3195
      5 O3B         0.4806    2.1962   -3.2324 O.3       1 GTP         0.4672
      6 PB          0.0853    3.6899   -2.7046 P.3       1 GTP        -1.1062
      7 O1B         1.1751    4.6577   -3.1089 O.co2     1 GTP         0.3195
      8 O2B        -1.3603    3.9530   -3.0647 O.co2     1 GTP         0.3195
      9 O3A         0.1812    3.4344   -1.0958 O.3       1 GTP         0.4672
     10 PA         -0.0721    4.4467    0.1409 P.3       1 GTP        -0.9715
     11 O1A         0.8341    5.6436    0.1482 O.2       1 GTP         0.2707
     12 O2A        -1.6506    4.7887    0.0480 O.3       1 GTP         0.0326
     13 O5'         0.0166    3.5128    1.4591 O.3       1 GTP         0.1618
     14 C5'        -0.8811    2.4285    1.6206 C.3       1 GTP         0.1504
     15 C4'        -0.1994    1.3333    2.4288 C.3       1 GTP         0.1111
     16 O4'        -1.1285    0.2356    2.5840 O.3       1 GTP        -0.1436
     17 C3'         1.0324    0.7610    1.7344 C.3       1 GTP         0.1111
     18 O3'         1.9175    0.2377    2.7247 O.3       1 GTP        -0.2728
     19 C2'         0.4468   -0.3802    0.9263 C.3       1 GTP         0.1111
     20 O2'         1.3993   -1.3703    0.5961 O.3       1 GTP        -0.2728
     21 C1'        -0.6159   -0.9100    1.8769 C.3       1 GTP         0.0918
     22 N9         -1.7127   -1.6108    1.2130 N.pl3     1 GTP        -0.0449
     23 C8         -1.7695   -2.9586    0.9546 C.ar      1 GTP         0.4884
     24 N7         -2.8846   -3.3047    0.3416 N.2       1 GTP        -0.5260
     25 C5         -3.5626   -2.1296    0.2052 C.ar      1 GTP         0.4178
     26 C6         -4.8477   -1.8989   -0.3942 C.ar      1 GTP         0.2530
     27 O6         -5.5373   -2.7819   -0.8881 O.2       1 GTP        -0.2755
     28 N1         -5.1895   -0.5407   -0.3318 N.pl3     1 GTP        -0.1604
     29 C2         -4.3899    0.4774    0.2398 C.ar      1 GTP         0.4468
     30 N2         -4.9233    1.7390    0.1898 N.pl3     1 GTP        -0.5618
     31 N3         -3.2159    0.2368    0.7822 N.2       1 GTP        -0.4271
     32 C4         -2.8678   -1.0679    0.7322 C.ar      1 GTP         0.0498
     33 HOA2       -1.9838    5.2838   -0.7305 H         1 GTP         0.2010
     34 H5'        -1.7777    2.7838    2.1390 H         1 GTP        -0.0393
     35 H5''       -1.1661    2.0530    0.6323 H         1 GTP        -0.0393
     36 H4'         0.0402    1.7079    3.4342 H         1 GTP        -0.0393
     37 H3'         1.5907    1.4859    1.1353 H         1 GTP        -0.0393
     38 HO3'        2.6839   -0.1150    2.2479 H         1 GTP         0.2010
     39 H2'        -0.0017    0.0018    0.0005 H         1 GTP        -0.0393
     40 HO2'        2.0953   -0.9375    0.0709 H         1 GTP         0.2010
     41 H1'        -0.1998   -1.6319    2.6178 H         1 GTP        -0.0393
     42 H8         -0.9713   -3.6323    1.2352 H         1 GTP        -0.1369
     43 HN1        -6.0831   -0.2651   -0.7290 H         1 GTP         0.0865
     44 HN21       -4.3985    2.4878    0.5788 H         1 GTP         0.2048
     45 HN22       -5.8145    1.8572   -0.2335 H         1 GTP         0.2048
@<TRIPOS>BOND
     1    1    2 2
     2    1    3 1
     3    1    4 1
     4    1    5 1
     5    5    6 1
     6    6    7 2
     7    6    8 1
     8    6    9 1
     9    9   10 1
    10   10   11 2
    11   10   12 1
    12   10   13 1
    13   12   33 1
    14   13   14 1
    15   14   15 1
    16   14   34 1
    17   14   35 1
    18   15   16 1
    19   15   17 1
    20   15   36 1
    21   16   21 1
    22   17   18 1
    23   17   19 1
    24   17   37 1
    25   18   38 1
    26   19   20 1
    27   19   21 1
    28   19   39 1
    29   20   40 1
    30   21   22 1
    31   21   41 1
    32   22   23 ar
    33   22   32 ar
    34   23   24 ar
    35   23   42 1
    36   24   25 ar
    37   25   26 ar
    38   25   32 ar
    39   26   27 2
    40   26   28 ar
    41   28   29 ar
    42   28   43 1
    43   29   30 1
    44   29   31 ar
    45   30   44 1
    46   30   45 1
    47   31   32 ar
@<TRIPOS>SUBSTRUCTURE
     1 GTP         1 GROUP 0 A     ****
@<TRIPOS>MOLECULE
[[[5-(2-amino-6-oxo-1~{H}-purin-9-yl)-3,4-dihydroxy-tetrahydrofuran-2-yl]methoxy-hydroxy-phosphoryl]oxy-oxido-phosphoryl] phosphate
   45    47     1     0     0
SMALL
USER_CHARGES

@<TRIPOS>ATOM
      1 PG         -1.0756    8.5465    0.1606 P.3       1 GTP        -1.1921
      2 O1G         0.3062    9.1003    0.4916 O.co2     1 GTP         0.3195
      3 O2G        -1.2367    8.0758   -1.2808 O.co2     1 GTP         0.3195
      4 O3G        -2.2301    9.4048    0.6675 O.co2     1 GTP         0.3195
      5 O3B        -1.1900    7.1685    1.0573 O.3       1 GTP         0.4672
      6 PB         -1.1108    6.9100    2.6676 P.3       1 GTP        -1.1062
      7 O1B         0.2883    7.2263    3.1472 O.co2     1 GTP         0.3195
      8 O2B        -2.3177    7.5560    3.3116 O.co2     1 GTP         0.3195
      9 O3A        -1.3176    5.2914    2.6847 O.3       1 GTP         0.4672
     10 PA         -2.5512    4.3890    2.1537 P.3       1 GTP        -0.9715
     11 O1A        -3.8625    4.6915    2.8192 O.2       1 GTP         0.2707
     12 O2A        -2.5345    4.6098    0.5511 O.3       1 GTP         0.0326
     13 O5'        -2.0394    2.8623    2.3117 O.3       1 GTP         0.1618
     14 C5'        -0.8811    2.4285    1.6206 C.3       1 GTP         0.1504
     15 C4'        -0.1994    1.3333    2.4288 C.3       1 GTP         0.1111
     16 O4'        -1.1285    0.2356    2.5840 O.3       1 GTP        -0.1436
     17 C3'         1.0324    0.7610    1.7344 C.3       1 GTP         0.1111
     18 O3'         1.9175    0.2377    2.7247 O.3       1 GTP        -0.2728
     19 C2'         0.4468   -0.3802    0.9263 C.3       1 GTP         0.1111
     20 O2'         1.3993   -1.3703    0.5961 O.3       1 GTP        -0.2728
     21 C1'        -0.6159   -0.9100    1.8769 C.3       1 GTP         0.0918
     22 N9         -1.7127   -1.6108    1.2130 N.pl3     1 GTP        -0.0449
     23 C8         -1.7695   -2.9586    0.9546 C.ar      1 GTP         0.4884
     24 N7         -2.8846   -3.3047    0.3416 N.2       1 GTP        -0.5260
     25 C5         -3.5626   -2.1296    0.2052 C.ar      1 GTP         0.4178
     26 C6         -4.8477   -1.8989   -0.3942 C.ar      1 GTP         0.2530
     27 O6         -5.5373   -2.7819   -0.8881 O.2       1 GTP        -0.2755
     28 N1         -5.1895   -0.5407   -0.3318 N.pl3     1 GTP        -0.1604
     29 C2         -4.3899    0.4774    0.2398 C.ar      1 GTP         0.4468
     30 N2         -4.9233    1.7390    0.1898 N.pl3     1 GTP        -0.5618
     31 N3         -3.2159    0.2368    0.7822 N.2       1 GTP        -0.4271
     32 C4         -2.8678   -1.0679    0.7322 C.ar      1 GTP         0.0498
     33 HOA2       -2.7276    5.5023    0.1931 H         1 GTP         0.2010
     34 H5'        -1.1757    2.0497    0.6364 H         1 GTP        -0.0393
     35 H5''       -0.2069    3.2809    1.4872 H         1 GTP        -0.0393
     36 H4'         0.0402    1.7079    3.4342 H         1 GTP        -0.0393
     37 H3'         1.5907    1.4859    1.1353 H         1 GTP        -0.0393
     38 HO3'        2.6839   -0.1150    2.2479 H         1 GTP         0.2010
     39 H2'        -0.0017    0.0018    0.0005 H         1 GTP        -0.0393
     40 HO2'        2.0953   -0.9375    0.0709 H         1 GTP         0.2010
     41 H1'        -0.1998   -1.6319    2.6178 H         1 GTP        -0.0393
     42 H8         -0.9713   -3.6323    1.2352 H         1 GTP        -0.1369
     43 HN1        -6.0831   -0.2651   -0.7290 H         1 GTP         0.0865
     44 HN21       -4.3985    2.4878    0.5788 H         1 GTP         0.2048
     45 HN22       -5.8145    1.8572   -0.2335 H         1 GTP         0.2048
@<TRIPOS>BOND
     1    1    2 2
     2    1    3 1
     3    1    4 1
     4    1    5 1
     5    5    6 1
     6    6    7 2
     7    6    8 1
     8    6    9 1
     9    9   10 1
    10   10   11 2
    11   10   12 1
    12   10   13 1
    13   12   33 1
    14   13   14 1
    15   14   15 1
    16   14   34 1
    17   14   35 1
    18   15   16 1
    19   15   17 1
    20   15   36 1
    21   16   21 1
    22   17   18 1
    23   17   19 1
    24   17   37 1
    25   18   38 1
    26   19   20 1
    27   19   21 1
    28   19   39 1
    29   20   40 1
    30   21   22 1
    31   21   41 1
    32   22   23 ar
    33   22   32 ar
    34   23   24 ar
    35   23   42 1
    36   24   25 ar
    37   25   26 ar
    38   25   32 ar
    39   26   27 2
    40   26   28 ar
    41   28   29 ar
    42   28   43 1
    43   29   30 1
    44   29   31 ar
    45   30   44 1
    46   30   45 1
    47   31   32 ar
@<TRIPOS>SUBSTRUCTURE
     1 GTP         1 GROUP 0 A     ****
@<TRIPOS>MOLECULE
[[[5-(2-amino-6-oxo-1~{H}-purin-9-yl)-3,4-dihydroxy-tetrahydrofuran-2-yl]methoxy-hydroxy-phosphoryl]oxy-oxido-phosphoryl] phosphate
   45    47     1     0     0
SMALL
USER_CHARGES

@<TRIPOS>ATOM
      1 PG         -2.9527    8.8273    4.0444 P.3       1 GTP        -1.1921
      2 O1G        -3.2172    9.5742    2.7414 O.co2     1 GTP         0.3195
      3 O2G        -4.2042    8.5198    4.8593 O.co2     1 GTP         0.3195
      4 O3G        -1.7992    9.3940    4.8659 O.co2     1 GTP         0.3195
      5 O3B        -2.4020    7.3499    3.5650 O.3       1 GTP         0.4672
      6 PB         -1.1108    6.9100    2.6676 P.3       1 GTP        -1.1062
      7 O1B        -1.3031    7.4096    1.2530 O.co2     1 GTP         0.3195
      8 O2B         0.1431    7.2430    3.4456 O.co2     1 GTP         0.3195
      9 O3A        -1.3176    5.2914    2.6847 O.3       1 GTP         0.4672
     10 PA         -2.5512    4.3890    2.1537 P.3       1 GTP        -0.9715
     11 O1A        -3.8625    4.6915    2.8192 O.2       1 GTP         0.2707
     12 O2A        -2.5345    4.6098    0.5511 O.3       1 GTP         0.0326
     13 O5'        -2.0394    2.8623    2.3117 O.3       1 GTP         0.1618
     14 C5'        -0.8811    2.4285    1.6206 C.3       1 GTP         0.1504
     15 C4'        -0.1994    1.3333    2.4288 C.3       1 GTP         0.1111
     16 O4'        -1.1285    0.2356    2.5840 O.3       1 GTP        -0.1436
     17 C3'         1.0324    0.7610    1.7344 C.3       1 GTP         0.1111
     18 O3'         1.9175    0.2377    2.7247 O.3       1 GTP        -0.2728
     19 C2'         0.4468   -0.3802    0.9263 C.3       1 GTP         0.1111
     20 O2'         1.3993   -1.3703    0.5961 O.3       1 GTP        -0.2728
     21 C1'        -0.6159   -0.9100    1.8769 C.3       1 GTP         0.0918
     22 N9         -1.7127   -1.6108    1.2130 N.pl3     1 GTP        -0.0449
     23 C8         -1.7695   -2.9586    0.9546 C.ar      1 GTP         0.4884
     24 N7         -2.8846   -3.3047    0.3416 N.2       1 GTP        -0.5260
     25 C5         -3.5626   -2.1296    0.2052 C.ar      1 GTP         0.4178
     26 C6         -4.8477   -1.8989   -0.3942 C.ar      1 GTP         0.2530
     27 O6         -5.5373   -2.7819   -0.8881 O.2       1 GTP        -0.2755
     28 N1         -5.1895   -0.5407   -0.3318 N.pl3     1 GTP        -0.1604
     29 C2         -4.3899    0.4774    0.2398 C.ar      1 GTP         0.4468
     30 N2         -4.9233    1.7390    0.1898 N.pl3     1 GTP        -0.5618
     31 N3         -3.2159    0.2368    0.7822 N.2       1 GTP        -0.4271
     32 C4         -2.8678   -1.0679    0.7322 C.ar      1 GTP         0.0498
     33 HOA2       -2.7276    5.5023    0.1931 H         1 GTP         0.2010
     34 H5'        -1.1757    2.0497    0.6364 H         1 GTP        -0.0393
     35 H5''       -0.2069    3.2809    1.4872 H         1 GTP        -0.0393
     36 H4'         0.0402    1.7079    3.4342 H         1 GTP        -0.0393
     37 H3'         1.5907    1.4859    1.1353 H         1 GTP        -0.0393
     38 HO3'        2.6839   -0.1150    2.2479 H         1 GTP         0.2010
     39 H2'        -0.0017    0.0018    0.0005 H         1 GTP        -0.0393
     40 HO2'        2.0953   -0.9375    0.0709 H         1 GTP         0.2010
     41 H1'        -0.1998   -1.6319    2.6178 H         1 GTP        -0.0393
     42 H8         -0.9713   -3.6323    1.2352 H         1 GTP        -0.1369
     43 HN1        -6.0831   -0.2651   -0.7290 H         1 GTP         0.0865
     44 HN21       -4.3985    2.4878    0.5788 H         1 GTP         0.2048
     45 HN22       -5.8145    1.8572   -0.2335 H         1 GTP         0.2048
@<TRIPOS>BOND
     1    1    2 2
     2    1    3 1
     3    1    4 1
     4    1    5 1
     5    5    6 1
     6    6    7 2
     7    6    8 1
     8    6    9 1
     9    9   10 1
    10   10   11 2
    11   10   12 1
    12   10   13 1
    13   12   33 1
    14   13   14 1
    15   14   15 1
    16   14   34 1
    17   14   35 1
    18   15   16 1
    19   15   17 1
    20   15   36 1
    21   16   21 1
    22   17   18 1
    23   17   19 1
    24   17   37 1
    25   18   38 1
    26   19   20 1
    27   19   21 1
    28   19   39 1
    29   20   40 1
    30   21   22 1
    31   21   41 1
    32   22   23 ar
    33   22   32 ar
    34   23   24 ar
    35   23   42 1
    36   24   25 ar
    37   25   26 ar
    38   25   32 ar
    39   26   27 2
    40   26   28 ar
    41   28   29 ar
    42   28   43 1
    43   29   30 1
    44   29   31 ar
    45   30   44 1
    46   30   45 1
    47   31   32 ar
@<TRIPOS>SUBSTRUCTURE
     1 GTP         1 GROUP 0 A     ****
@<TRIPOS>MOLECULE
[[[5-(2-amino-6-oxo-1~{H}-purin-9-yl)-3,4-dihydroxy-tetrahydrofuran-2-yl]methoxy-hydroxy-phosphoryl]oxy-oxido-phosphoryl] phosphate
   45    47     1     0     0
SMALL
USER_CHARGES

@<TRIPOS>ATOM
      1 PG         -2.2004    2.3387   -3.1573 P.3       1 GTP        -1.1921
      2 O1G        -3.6868    2.6576   -3.0371 O.co2     1 GTP         0.3195
      3 O2G        -1.8017    1.6822   -4.4745 O.co2     1 GTP         0.3195
      4 O3G        -1.6034    1.6700   -1.9232 O.co2     1 GTP         0.3195
      5 O3B        -1.4669    3.8140   -3.1958 O.3       1 GTP         0.4672
      6 PB         -1.4515    5.0483   -2.1269 P.3       1 GTP        -1.1062
      7 O1B        -0.4819    6.1038   -2.6100 O.co2     1 GTP         0.3195
      8 O2B        -2.8834    5.4034   -1.7920 O.co2     1 GTP         0.3195
      9 O3A        -0.7944    4.2793   -0.8464 O.3       1 GTP         0.4672
     10 PA         -0.4427    4.8271    0.6349 P.3       1 GTP        -0.9715
     11 O1A         0.5394    5.9624    0.6510 O.2       1 GTP         0.2707
     12 O2A        -1.8876    5.1681    1.2779 O.3       1 GTP         0.0326
     13 O5'         0.0166    3.5128    1.4591 O.3       1 GTP         0.1618
     14 C5'        -0.8811    2.4285    1.6206 C.3       1 GTP         0.1504
     15 C4'        -0.1994    1.3333    2.4288 C.3       1 GTP         0.1111
     16 O4'        -1.1285    0.2356    2.5840 O.3       1 GTP        -0.1436
     17 C3'         1.0324    0.7610    1.7344 C.3       1 GTP         0.1111
     18 O3'         1.9175    0.2377    2.7247 O.3       1 GTP        -0.2728
     19 C2'         0.4468   -0.3802    0.9263 C.3       1 GTP         0.1111
     20 O2'         1.3993   -1.3703    0.5961 O.3       1 GTP        -0.2728
     21 C1'        -0.6159   -0.9100    1.8769 C.3       1 GTP         0.0918
     22 N9         -1.7127   -1.6108    1.2130 N.pl3     1 GTP        -0.0449
     23 C8         -2.8667   -1.0365    0.7385 C.ar      1 GTP         0.4884
     24 N7         -3.6757   -1.9196    0.1868 N.2       1 GTP        -0.5260
     25 C5         -3.0088   -3.1018    0.3164 C.ar      1 GTP         0.4178
     26 C6         -3.4148   -4.4130   -0.1079 C.ar      1 GTP         0.2530
     27 O6         -4.4753   -4.6480   -0.6732 O.2       1 GTP        -0.2755
     28 N1         -2.4377   -5.3653    0.2144 N.pl3     1 GTP        -0.1604
     29 C2         -1.2132   -5.0902    0.8680 C.ar      1 GTP         0.4468
     30 N2         -0.4066   -6.1772    1.0834 N.pl3     1 GTP        -0.5618
     31 N3         -0.8672   -3.8786    1.2457 N.2       1 GTP        -0.4271
     32 C4         -1.7966   -2.9451    0.9439 C.ar      1 GTP         0.0498
     33 HOA2       -1.9352    5.4469    2.2171 H         1 GTP         0.2010
     34 H5'        -1.7777    2.7838    2.1390 H         1 GTP        -0.0393
     35 H5''       -1.1661    2.0530    0.6323 H         1 GTP        -0.0393
     36 H4'         0.0402    1.7079    3.4342 H         1 GTP        -0.0393
     37 H3'         1.5907    1.4859    1.1353 H         1 GTP        -0.0393
     38 HO3'        2.1521    0.9800    3.3017 H         1 GTP         0.2010
     39 H2'        -0.0017    0.0018    0.0005 H         1 GTP        -0.0393
     40 HO2'        0.9369   -2.0558    0.0825 H         1 GTP         0.2010
     41 H1'        -0.1998   -1.6319    2.6178 H         1 GTP        -0.0393
     42 H8         -3.0589    0.0244    0.8247 H         1 GTP        -0.1369
     43 HN1        -2.6238   -6.3307   -0.0420 H         1 GTP         0.0865
     44 HN21        0.4646   -6.0341    1.5394 H         1 GTP         0.2048
     45 HN22       -0.7235   -7.0673    0.7753 H         1 GTP         0.2048
@<TRIPOS>BOND
     1    1    2 2
     2    1    3 1
     3    1    4 1
     4    1    5 1
     5    5    6 1
     6    6    7 2
     7    6    8 1
     8    6    9 1
     9    9   10 1
    10   10   11 2
    11   10   12 1
    12   10   13 1
    13   12   33 1
    14   13   14 1
    15   14   15 1
    16   14   34 1
    17   14   35 1
    18   15   16 1
    19   15   17 1
    20   15   36 1
    21   16   21 1
    22   17   18 1
    23   17   19 1
    24   17   37 1
    25   18   38 1
    26   19   20 1
    27   19   21 1
    28   19   39 1
    29   20   40 1
    30   21   22 1
    31   21   41 1
    32   22   23 ar
    33   22   32 ar
    34   23   24 ar
    35   23   42 1
    36   24   25 ar
    37   25   26 ar
    38   25   32 ar
    39   26   27 2
    40   26   28 ar
    41   28   29 ar
    42   28   43 1
    43   29   30 1
    44   29   31 ar
    45   30   44 1
    46   30   45 1
    47   31   32 ar
@<TRIPOS>SUBSTRUCTURE
     1 GTP         1 GROUP 0 A     ****
@<TRIPOS>MOLECULE
[[[5-(2-amino-6-oxo-1~{H}-purin-9-yl)-3,4-dihydroxy-tetrahydrofuran-2-yl]methoxy-hydroxy-phosphoryl]oxy-oxido-phosphoryl] phosphate
   45    47     1     0     0
SMALL
USER_CHARGES

@<TRIPOS>ATOM
      1 PG         -0.8092    2.7122   -4.6633 P.3       1 GTP        -1.1921
      2 O1G        -0.2465    1.3137   -4.4324 O.co2     1 GTP         0.3195
      3 O2G        -2.2327    2.7360   -5.2092 O.co2     1 GTP         0.3195
      4 O3G         0.1477    3.6597   -5.3796 O.co2     1 GTP         0.3195
      5 O3B        -0.9385    3.3563   -3.1519 O.3       1 GTP         0.4672
      6 PB          0.1754    3.6390   -1.9920 P.3       1 GTP        -1.1062
      7 O1B         0.7101    2.3155   -1.4920 O.co2     1 GTP         0.3195
      8 O2B         1.1124    4.7185   -2.4874 O.co2     1 GTP         0.3195
      9 O3A        -0.7944    4.2793   -0.8464 O.3       1 GTP         0.4672
     10 PA         -0.4427    4.8271    0.6349 P.3       1 GTP        -0.9715
     11 O1A         0.5394    5.9624    0.6510 O.2       1 GTP         0.2707
     12 O2A        -1.8876    5.1681    1.2779 O.3       1 GTP         0.0326
     13 O5'         0.0166    3.5128    1.4591 O.3       1 GTP         0.1618
     14 C5'        -0.8811    2.4285    1.6206 C.3       1 GTP         0.1504
     15 C4'        -0.1994    1.3333    2.4288 C.3       1 GTP         0.1111
     16 O4'        -1.1285    0.2356    2.5840 O.3       1 GTP        -0.1436
     17 C3'         1.0324    0.7610    1.7344 C.3       1 GTP         0.1111
     18 O3'         1.9175    0.2377    2.7247 O.3       1 GTP        -0.2728
     19 C2'         0.4468   -0.3802    0.9263 C.3       1 GTP         0.1111
     20 O2'         1.3993   -1.3703    0.5961 O.3       1 GTP        -0.2728
     21 C1'        -0.6159   -0.9100    1.8769 C.3       1 GTP         0.0918
     22 N9         -1.7127   -1.6108    1.2130 N.pl3     1 GTP        -0.0449
     23 C8         -2.5489   -1.0812    0.2607 C.ar      1 GTP         0.4884
     24 N7         -3.4468   -1.9516   -0.1576 N.2       1 GTP        -0.5260
     25 C5         -3.1696   -3.0787    0.5579 C.ar      1 GTP         0.4178
     26 C6         -3.8307   -4.3536    0.5166 C.ar      1 GTP         0.2530
     27 O6         -4.7841   -4.6033   -0.2101 O.2       1 GTP        -0.2755
     28 N1         -3.2356   -5.2522    1.4132 N.pl3     1 GTP        -0.1604
     29 C2         -2.1338   -4.9602    2.2517 C.ar      1 GTP         0.4468
     30 N2         -1.7156   -5.9923    3.0507 N.pl3     1 GTP        -0.5618
     31 N3         -1.5477   -3.7827    2.2686 N.2       1 GTP        -0.4271
     32 C4         -2.1070   -2.9013    1.4104 C.ar      1 GTP         0.0498
     33 HOA2       -1.9352    5.4469    2.2171 H         1 GTP         0.2010
     34 H5'        -1.7777    2.7838    2.1390 H         1 GTP        -0.0393
     35 H5''       -1.1661    2.0530    0.6323 H         1 GTP        -0.0393
     36 H4'         0.0402    1.7079    3.4342 H         1 GTP        -0.0393
     37 H3'         1.5907    1.4859    1.1353 H         1 GTP        -0.0393
     38 HO3'        2.6839   -0.1150    2.2479 H         1 GTP         0.2010
     39 H2'        -0.0017    0.0018    0.0005 H         1 GTP        -0.0393
     40 HO2'        0.9369   -2.0558    0.0825 H         1 GTP         0.2010
     41 H1'        -0.1998   -1.6319    2.6178 H         1 GTP        -0.0393
     42 H8         -2.4545   -0.0604   -0.0844 H         1 GTP        -0.1369
     43 HN1        -3.6270   -6.1884    1.4651 H         1 GTP         0.0865
     44 HN21       -0.9445   -5.8354    3.6574 H         1 GTP         0.2048
     45 HN22       -2.1993   -6.8585    2.9930 H         1 GTP         0.2048
@<TRIPOS>BOND
     1    1    2 2
     2    1    3 1
     3    1    4 1
     4    1    5 1
     5    5    6 1
     6    6    7 2
     7    6    8 1
     8    6    9 1
     9    9   10 1
    10   10   11 2
    11   10   12 1
    12   10   13 1
    13   12   33 1
    14   13   14 1
    15   14   15 1
    16   14   34 1
    17   14   35 1
    18   15   16 1
    19   15   17 1
    20   15   36 1
    21   16   21 1
    22   17   18 1
    23   17   19 1
    24   17   37 1
    25   18   38 1
    26   19   20 1
    27   19   21 1
    28   19   39 1
    29   20   40 1
    30   21   22 1
    31   21   41 1
    32   22   23 ar
    33   22   32 ar
    34   23   24 ar
    35   23   42 1
    36   24   25 ar
    37   25   26 ar
    38   25   32 ar
    39   26   27 2
    40   26   28 ar
    41   28   29 ar
    42   28   43 1
    43   29   30 1
    44   29   31 ar
    45   30   44 1
    46   30   45 1
    47   31   32 ar
@<TRIPOS>SUBSTRUCTURE
     1 GTP         1 GROUP 0 A     ****
@<TRIPOS>MOLECULE
[[[5-(2-amino-6-oxo-1~{H}-purin-9-yl)-3,4-dihydroxy-tetrahydrofuran-2-yl]methoxy-hydroxy-phosphoryl]oxy-oxido-phosphoryl] phosphate
   45    47     1     0     0
SMALL
USER_CHARGES

@<TRIPOS>ATOM
      1 PG         -2.4161    4.5732   -4.0928 P.3       1 GTP        -1.1921
      2 O1G        -2.3801    3.3619   -5.0186 O.co2     1 GTP         0.3195
      3 O2G        -3.7850    4.8619   -3.4865 O.co2     1 GTP         0.3195
      4 O3G        -1.7096    5.8053   -4.6490 O.co2     1 GTP         0.3195
      5 O3B        -1.4825    4.1342   -2.8077 O.3       1 GTP         0.4672
      6 PB          0.0853    3.6899   -2.7046 P.3       1 GTP        -1.1062
      7 O1B         0.2691    2.3691   -3.4183 O.co2     1 GTP         0.3195
      8 O2B         0.9415    4.8874   -3.0534 O.co2     1 GTP         0.3195
      9 O3A         0.1812    3.4344   -1.0958 O.3       1 GTP         0.4672
     10 PA         -0.0721    4.4467    0.1409 P.3       1 GTP        -0.9715
     11 O1A         0.8341    5.6436    0.1482 O.2       1 GTP         0.2707
     12 O2A        -1.6506    4.7887    0.0480 O.3       1 GTP         0.0326
     13 O5'         0.0166    3.5128    1.4591 O.3       1 GTP         0.1618
     14 C5'        -0.8811    2.4285    1.6206 C.3       1 GTP         0.1504
     15 C4'        -0.1994    1.3333    2.4288 C.3       1 GTP         0.1111
     16 O4'        -1.1285    0.2356    2.5840 O.3       1 GTP        -0.1436
     17 C3'         1.0324    0.7610    1.7344 C.3       1 GTP         0.1111
     18 O3'         1.9175    0.2377    2.7247 O.3       1 GTP        -0.2728
     19 C2'         0.4468   -0.3802    0.9263 C.3       1 GTP         0.1111
     20 O2'         1.3993   -1.3703    0.5961 O.3       1 GTP        -0.2728
     21 C1'        -0.6159   -0.9100    1.8769 C.3       1 GTP         0.0918
     22 N9         -1.7127   -1.6108    1.2130 N.pl3     1 GTP        -0.0449
     23 C8         -2.8667   -1.0365    0.7385 C.ar      1 GTP         0.4884
     24 N7         -3.6757   -1.9196    0.1868 N.2       1 GTP        -0.5260
     25 C5         -3.0088   -3.1018    0.3164 C.ar      1 GTP         0.4178
     26 C6         -3.4148   -4.4130   -0.1079 C.ar      1 GTP         0.2530
     27 O6         -4.4753   -4.6480   -0.6732 O.2       1 GTP        -0.2755
     28 N1         -2.4377   -5.3653    0.2144 N.pl3     1 GTP        -0.1604
     29 C2         -1.2132   -5.0902    0.8680 C.ar      1 GTP         0.4468
     30 N2         -0.4066   -6.1772    1.0834 N.pl3     1 GTP        -0.5618
     31 N3         -0.8672   -3.8786    1.2457 N.2       1 GTP        -0.4271
     32 C4         -1.7966   -2.9451    0.9439 C.ar      1 GTP         0.0498
     33 HOA2       -1.9838    5.2838   -0.7305 H         1 GTP         0.2010
     34 H5'        -1.7777    2.7838    2.1390 H         1 GTP        -0.0393
     35 H5''       -1.1661    2.0530    0.6323 H         1 GTP        -0.0393
     36 H4'         0.0402    1.7079    3.4342 H         1 GTP        -0.0393
     37 H3'         1.5907    1.4859    1.1353 H         1 GTP        -0.0393
     38 HO3'        2.6839   -0.1150    2.2479 H         1 GTP         0.2010
     39 H2'        -0.0017    0.0018    0.0005 H         1 GTP        -0.0393
     40 HO2'        2.0953   -0.9375    0.0709 H         1 GTP         0.2010
     41 H1'        -0.1998   -1.6319    2.6178 H         1 GTP        -0.0393
     42 H8         -3.0589    0.0244    0.8247 H         1 GTP        -0.1369
     43 HN1        -2.6238   -6.3307   -0.0420 H         1 GTP         0.0865
     44 HN21        0.4646   -6.0341    1.5394 H         1 GTP         0.2048
     45 HN22       -0.7235   -7.0673    0.7753 H         1 GTP         0.2048
@<TRIPOS>BOND
     1    1    2 2
     2    1    3 1
     3    1    4 1
     4    1    5 1
     5    5    6 1
     6    6    7 2
     7    6    8 1
     8    6    9 1
     9    9   10 1
    10   10   11 2
    11   10   12 1
    12   10   13 1
    13   12   33 1
    14   13   14 1
    15   14   15 1
    16   14   34 1
    17   14   35 1
    18   15   16 1
    19   15   17 1
    20   15   36 1
    21   16   21 1
    22   17   18 1
    23   17   19 1
    24   17   37 1
    25   18   38 1
    26   19   20 1
    27   19   21 1
    28   19   39 1
    29   20   40 1
    30   21   22 1
    31   21   41 1
    32   22   23 ar
    33   22   32 ar
    34   23   24 ar
    35   23   42 1
    36   24   25 ar
    37   25   26 ar
    38   25   32 ar
    39   26   27 2
    40   26   28 ar
    41   28   29 ar
    42   28   43 1
    43   29   30 1
    44   29   31 ar
    45   30   44 1
    46   30   45 1
    47   31   32 ar
@<TRIPOS>SUBSTRUCTURE
     1 GTP         1 GROUP 0 A     ****
@<TRIPOS>MOLECULE
[[[5-(2-amino-6-oxo-1~{H}-purin-9-yl)-3,4-dihydroxy-tetrahydrofuran-2-yl]methoxy-hydroxy-phosphoryl]oxy-oxido-phosphoryl] phosphate
   45    47     1     0     0
SMALL
USER_CHARGES

@<TRIPOS>ATOM
      1 PG          1.8216    6.3700    2.9384 P.3       1 GTP        -1.1921
      2 O1G         2.1030    6.9794    1.5691 O.co2     1 GTP         0.3195
      3 O2G         2.7721    6.8285    4.0391 O.co2     1 GTP         0.3195
      4 O3G         1.5785    4.8644    2.9138 O.co2     1 GTP         0.3195
      5 O3B         0.3597    6.9949    3.3722 O.3       1 GTP         0.4672
      6 PB         -1.1108    6.9100    2.6676 P.3       1 GTP        -1.1062
      7 O1B        -2.1329    7.5403    3.5872 O.co2     1 GTP         0.3195
      8 O2B        -0.9750    7.3625    1.2304 O.co2     1 GTP         0.3195
      9 O3A        -1.3176    5.2914    2.6847 O.3       1 GTP         0.4672
     10 PA         -2.5512    4.3890    2.1537 P.3       1 GTP        -0.9715
     11 O1A        -3.8625    4.6915    2.8192 O.2       1 GTP         0.2707
     12 O2A        -2.5345    4.6098    0.5511 O.3       1 GTP         0.0326
     13 O5'        -2.0394    2.8623    2.3117 O.3       1 GTP         0.1618
     14 C5'        -0.8811    2.4285    1.6206 C.3       1 GTP         0.1504
     15 C4'        -0.1994    1.3333    2.4288 C.3       1 GTP         0.1111
     16 O4'        -1.1285    0.2356    2.5840 O.3       1 GTP        -0.1436
     17 C3'         1.0324    0.7610    1.7344 C.3       1 GTP         0.1111
     18 O3'         1.9175    0.2377    2.7247 O.3       1 GTP        -0.2728
     19 C2'         0.4468   -0.3802    0.9263 C.3       1 GTP         0.1111
     20 O2'         1.3993   -1.3703    0.5961 O.3       1 GTP        -0.2728
     21 C1'        -0.6159   -0.9100    1.8769 C.3       1 GTP         0.0918
     22 N9         -1.7127   -1.6108    1.2130 N.pl3     1 GTP        -0.0449
     23 C8         -2.8667   -1.0365    0.7385 C.ar      1 GTP         0.4884
     24 N7         -3.6757   -1.9196    0.1868 N.2       1 GTP        -0.5260
     25 C5         -3.0088   -3.1018    0.3164 C.ar      1 GTP         0.4178
     26 C6         -3.4148   -4.4130   -0.1079 C.ar      1 GTP         0.2530
     27 O6         -4.4753   -4.6480   -0.6732 O.2       1 GTP        -0.2755
     28 N1         -2.4377   -5.3653    0.2144 N.pl3     1 GTP        -0.1604
     29 C2         -1.2132   -5.0902    0.8680 C.ar      1 GTP         0.4468
     30 N2         -0.4066   -6.1772    1.0834 N.pl3     1 GTP        -0.5618
     31 N3         -0.8672   -3.8786    1.2457 N.2       1 GTP        -0.4271
     32 C4         -1.7966   -2.9451    0.9439 C.ar      1 GTP         0.0498
     33 HOA2       -2.7276    5.5023    0.1931 H         1 GTP         0.2010
     34 H5'        -1.1757    2.0497    0.6364 H         1 GTP        -0.0393
     35 H5''       -0.2069    3.2809    1.4872 H         1 GTP        -0.0393
     36 H4'         0.0402    1.7079    3.4342 H         1 GTP        -0.0393
     37 H3'         1.5907    1.4859    1.1353 H         1 GTP        -0.0393
     38 HO3'        2.1521    0.9800    3.3017 H         1 GTP         0.2010
     39 H2'        -0.0017    0.0018    0.0005 H         1 GTP        -0.0393
     40 HO2'        2.0953   -0.9375    0.0709 H         1 GTP         0.2010
     41 H1'        -0.1998   -1.6319    2.6178 H         1 GTP        -0.0393
     42 H8         -3.0589    0.0244    0.8247 H         1 GTP        -0.1369
     43 HN1        -2.6238   -6.3307   -0.0420 H         1 GTP         0.0865
     44 HN21        0.4646   -6.0341    1.5394 H         1 GTP         0.2048
     45 HN22       -0.7235   -7.0673    0.7753 H         1 GTP         0.2048
@<TRIPOS>BOND
     1    1    2 2
     2    1    3 1
     3    1    4 1
     4    1    5 1
     5    5    6 1
     6    6    7 2
     7    6    8 1
     8    6    9 1
     9    9   10 1
    10   10   11 2
    11   10   12 1
    12   10   13 1
    13   12   33 1
    14   13   14 1
    15   14   15 1
    16   14   34 1
    17   14   35 1
    18   15   16 1
    19   15   17 1
    20   15   36 1
    21   16   21 1
    22   17   18 1
    23   17   19 1
    24   17   37 1
    25   18   38 1
    26   19   20 1
    27   19   21 1
    28   19   39 1
    29   20   40 1
    30   21   22 1
    31   21   41 1
    32   22   23 ar
    33   22   32 ar
    34   23   24 ar
    35   23   42 1
    36   24   25 ar
    37   25   26 ar
    38   25   32 ar
    39   26   27 2
    40   26   28 ar
    41   28   29 ar
    42   28   43 1
    43   29   30 1
    44   29   31 ar
    45   30   44 1
    46   30   45 1
    47   31   32 ar
@<TRIPOS>SUBSTRUCTURE
     1 GTP         1 GROUP 0 A     ****
@<TRIPOS>MOLECULE
[[[5-(2-amino-6-oxo-1~{H}-purin-9-yl)-3,4-dihydroxy-tetrahydrofuran-2-yl]methoxy-hydroxy-phosphoryl]oxy-oxido-phosphoryl] phosphate
   45    47     1     0     0
SMALL
USER_CHARGES

@<TRIPOS>ATOM
      1 PG         -1.2834    4.4131   -2.6118 P.3       1 GTP        -1.1921
      2 O1G        -2.1817    3.4573   -3.3897 O.co2     1 GTP         0.3195
      3 O2G        -0.4451    5.3404   -3.4849 O.co2     1 GTP         0.3195
      4 O3G        -0.5049    3.7544   -1.4775 O.co2     1 GTP         0.3195
      5 O3B        -2.3318    5.4187   -1.8338 O.3       1 GTP         0.4672
      6 PB         -3.5157    5.1256   -0.7482 P.3       1 GTP        -1.1062
      7 O1B        -4.0592    6.4449   -0.2465 O.co2     1 GTP         0.3195
      8 O2B        -4.4379    4.0739   -1.3245 O.co2     1 GTP         0.3195
      9 O3A        -2.6241    4.4418    0.4352 O.3       1 GTP         0.4672
     10 PA         -3.0699    3.8636    1.8791 P.3       1 GTP        -0.9715
     11 O1A        -3.7108    4.8828    2.7759 O.2       1 GTP         0.2707
     12 O2A        -4.0026    2.5917    1.5188 O.3       1 GTP         0.0326
     13 O5'        -1.7333    3.1724    2.4738 O.3       1 GTP         0.1618
     14 C5'        -0.8811    2.4285    1.6206 C.3       1 GTP         0.1504
     15 C4'        -0.1994    1.3333    2.4288 C.3       1 GTP         0.1111
     16 O4'        -1.1285    0.2356    2.5840 O.3       1 GTP        -0.1436
     17 C3'         1.0324    0.7610    1.7344 C.3       1 GTP         0.1111
     18 O3'         1.9175    0.2377    2.7247 O.3       1 GTP        -0.2728
     19 C2'         0.4468   -0.3802    0.9263 C.3       1 GTP         0.1111
     20 O2'         1.3993   -1.3703    0.5961 O.3       1 GTP        -0.2728
     21 C1'        -0.6159   -0.9100    1.8769 C.3       1 GTP         0.0918
     22 N9         -1.7127   -1.6108    1.2130 N.pl3     1 GTP        -0.0449
     23 C8         -2.8667   -1.0365    0.7385 C.ar      1 GTP         0.4884
     24 N7         -3.6757   -1.9196    0.1868 N.2       1 GTP        -0.5260
     25 C5         -3.0088   -3.1018    0.3164 C.ar      1 GTP         0.4178
     26 C6         -3.4148   -4.4130   -0.1079 C.ar      1 GTP         0.2530
     27 O6         -4.4753   -4.6480   -0.6732 O.2       1 GTP        -0.2755
     28 N1         -2.4377   -5.3653    0.2144 N.pl3     1 GTP        -0.1604
     29 C2         -1.2132   -5.0902    0.8680 C.ar      1 GTP         0.4468
     30 N2         -0.4066   -6.1772    1.0834 N.pl3     1 GTP        -0.5618
     31 N3         -0.8672   -3.8786    1.2457 N.2       1 GTP        -0.4271
     32 C4         -1.7966   -2.9451    0.9439 C.ar      1 GTP         0.0498
     33 HOA2       -4.3319    2.0233    2.2473 H         1 GTP         0.2010
     34 H5'        -1.4792    1.9919    0.8140 H         1 GTP        -0.0393
     35 H5''       -0.1359    3.1032    1.1865 H         1 GTP        -0.0393
     36 H4'         0.0402    1.7079    3.4342 H         1 GTP        -0.0393
     37 H3'         1.5907    1.4859    1.1353 H         1 GTP        -0.0393
     38 HO3'        2.6839   -0.1150    2.2479 H         1 GTP         0.2010
     39 H2'        -0.0017    0.0018    0.0005 H         1 GTP        -0.0393
     40 HO2'        2.0953   -0.9375    0.0709 H         1 GTP         0.2010
     41 H1'        -0.1998   -1.6319    2.6178 H         1 GTP        -0.0393
     42 H8         -3.0589    0.0244    0.8247 H         1 GTP        -0.1369
     43 HN1        -2.6238   -6.3307   -0.0420 H         1 GTP         0.0865
     44 HN21        0.4646   -6.0341    1.5394 H         1 GTP         0.2048
     45 HN22       -0.7235   -7.0673    0.7753 H         1 GTP         0.2048
@<TRIPOS>BOND
     1    1    2 2
     2    1    3 1
     3    1    4 1
     4    1    5 1
     5    5    6 1
     6    6    7 2
     7    6    8 1
     8    6    9 1
     9    9   10 1
    10   10   11 2
    11   10   12 1
    12   10   13 1
    13   12   33 1
    14   13   14 1
    15   14   15 1
    16   14   34 1
    17   14   35 1
    18   15   16 1
    19   15   17 1
    20   15   36 1
    21   16   21 1
    22   17   18 1
    23   17   19 1
    24   17   37 1
    25   18   38 1
    26   19   20 1
    27   19   21 1
    28   19   39 1
    29   20   40 1
    30   21   22 1
    31   21   41 1
    32   22   23 ar
    33   22   32 ar
    34   23   24 ar
    35   23   42 1
    36   24   25 ar
    37   25   26 ar
    38   25   32 ar
    39   26   27 2
    40   26   28 ar
    41   28   29 ar
    42   28   43 1
    43   29   30 1
    44   29   31 ar
    45   30   44 1
    46   30   45 1
    47   31   32 ar
@<TRIPOS>SUBSTRUCTURE
     1 GTP         1 GROUP 0 A     ****
@<TRIPOS>MOLECULE
[[[5-(2-amino-6-oxo-1~{H}-purin-9-yl)-3,4-dihydroxy-tetrahydrofuran-2-yl]methoxy-hydroxy-phosphoryl]oxy-oxido-phosphoryl] phosphate
   45    47     1     0     0
SMALL
USER_CHARGES

@<TRIPOS>ATOM
      1 PG         -2.4161    4.5732   -4.0928 P.3       1 GTP        -1.1921
      2 O1G        -2.3801    3.3619   -5.0186 O.co2     1 GTP         0.3195
      3 O2G        -3.7850    4.8619   -3.4865 O.co2     1 GTP         0.3195
      4 O3G        -1.7096    5.8053   -4.6490 O.co2     1 GTP         0.3195
      5 O3B        -1.4825    4.1342   -2.8077 O.3       1 GTP         0.4672
      6 PB          0.0853    3.6899   -2.7046 P.3       1 GTP        -1.1062
      7 O1B         0.2691    2.3691   -3.4183 O.co2     1 GTP         0.3195
      8 O2B         0.9415    4.8874   -3.0534 O.co2     1 GTP         0.3195
      9 O3A         0.1812    3.4344   -1.0958 O.3       1 GTP         0.4672
     10 PA         -0.0721    4.4467    0.1409 P.3       1 GTP        -0.9715
     11 O1A         0.8341    5.6436    0.1482 O.2       1 GTP         0.2707
     12 O2A        -1.6506    4.7887    0.0480 O.3       1 GTP         0.0326
     13 O5'         0.0166    3.5128    1.4591 O.3       1 GTP         0.1618
     14 C5'        -0.8811    2.4285    1.6206 C.3       1 GTP         0.1504
     15 C4'        -0.1994    1.3333    2.4288 C.3       1 GTP         0.1111
     16 O4'        -1.1285    0.2356    2.5840 O.3       1 GTP        -0.1436
     17 C3'         1.0324    0.7610    1.7344 C.3       1 GTP         0.1111
     18 O3'         1.9175    0.2377    2.7247 O.3       1 GTP        -0.2728
     19 C2'         0.4468   -0.3802    0.9263 C.3       1 GTP         0.1111
     20 O2'         1.3993   -1.3703    0.5961 O.3       1 GTP        -0.2728
     21 C1'        -0.6159   -0.9100    1.8769 C.3       1 GTP         0.0918
     22 N9         -1.7127   -1.6108    1.2130 N.pl3     1 GTP        -0.0449
     23 C8         -1.7695   -2.9586    0.9546 C.ar      1 GTP         0.4884
     24 N7         -2.8846   -3.3047    0.3416 N.2       1 GTP        -0.5260
     25 C5         -3.5626   -2.1296    0.2052 C.ar      1 GTP         0.4178
     26 C6         -4.8477   -1.8989   -0.3942 C.ar      1 GTP         0.2530
     27 O6         -5.5373   -2.7819   -0.8881 O.2       1 GTP        -0.2755
     28 N1         -5.1895   -0.5407   -0.3318 N.pl3     1 GTP        -0.1604
     29 C2         -4.3899    0.4774    0.2398 C.ar      1 GTP         0.4468
     30 N2         -4.9233    1.7390    0.1898 N.pl3     1 GTP        -0.5618
     31 N3         -3.2159    0.2368    0.7822 N.2       1 GTP        -0.4271
     32 C4         -2.8678   -1.0679    0.7322 C.ar      1 GTP         0.0498
     33 HOA2       -1.9838    5.2838   -0.7305 H         1 GTP         0.2010
     34 H5'        -1.7777    2.7838    2.1390 H         1 GTP        -0.0393
     35 H5''       -1.1661    2.0530    0.6323 H         1 GTP        -0.0393
     36 H4'         0.0402    1.7079    3.4342 H         1 GTP        -0.0393
     37 H3'         1.5907    1.4859    1.1353 H         1 GTP        -0.0393
     38 HO3'        2.6839   -0.1150    2.2479 H         1 GTP         0.2010
     39 H2'        -0.0017    0.0018    0.0005 H         1 GTP        -0.0393
     40 HO2'        2.0953   -0.9375    0.0709 H         1 GTP         0.2010
     41 H1'        -0.1998   -1.6319    2.6178 H         1 GTP        -0.0393
     42 H8         -0.9713   -3.6323    1.2352 H         1 GTP        -0.1369
     43 HN1        -6.0831   -0.2651   -0.7290 H         1 GTP         0.0865
     44 HN21       -4.3985    2.4878    0.5788 H         1 GTP         0.2048
     45 HN22       -5.8145    1.8572   -0.2335 H         1 GTP         0.2048
@<TRIPOS>BOND
     1    1    2 2
     2    1    3 1
     3    1    4 1
     4    1    5 1
     5    5    6 1
     6    6    7 2
     7    6    8 1
     8    6    9 1
     9    9   10 1
    10   10   11 2
    11   10   12 1
    12   10   13 1
    13   12   33 1
    14   13   14 1
    15   14   15 1
    16   14   34 1
    17   14   35 1
    18   15   16 1
    19   15   17 1
    20   15   36 1
    21   16   21 1
    22   17   18 1
    23   17   19 1
    24   17   37 1
    25   18   38 1
    26   19   20 1
    27   19   21 1
    28   19   39 1
    29   20   40 1
    30   21   22 1
    31   21   41 1
    32   22   23 ar
    33   22   32 ar
    34   23   24 ar
    35   23   42 1
    36   24   25 ar
    37   25   26 ar
    38   25   32 ar
    39   26   27 2
    40   26   28 ar
    41   28   29 ar
    42   28   43 1
    43   29   30 1
    44   29   31 ar
    45   30   44 1
    46   30   45 1
    47   31   32 ar
@<TRIPOS>SUBSTRUCTURE
     1 GTP         1 GROUP 0 A     ****
@<TRIPOS>MOLECULE
[[[5-(2-amino-6-oxo-1~{H}-purin-9-yl)-3,4-dihydroxy-tetrahydrofuran-2-yl]methoxy-hydroxy-phosphoryl]oxy-oxido-phosphoryl] phosphate
   45    47     1     0     0
SMALL
USER_CHARGES

@<TRIPOS>ATOM
      1 PG          2.1936    4.3590    4.9130 P.3       1 GTP        -1.1921
      2 O1G         2.0091    4.5469    3.4109 O.co2     1 GTP         0.3195
      3 O2G         3.2563    5.2588    5.5343 O.co2     1 GTP         0.3195
      4 O3G         2.2774    2.9012    5.3542 O.co2     1 GTP         0.3195
      5 O3B         0.7762    4.8849    5.5687 O.3       1 GTP         0.4672
      6 PB         -0.7661    4.3893    5.3638 P.3       1 GTP        -1.1062
      7 O1B        -0.8419    2.9010    5.6224 O.co2     1 GTP         0.3195
      8 O2B        -1.6749    5.3524    6.0954 O.co2     1 GTP         0.3195
      9 O3A        -0.9157    4.6512    3.7600 O.3       1 GTP         0.4672
     10 PA         -2.1747    4.4070    2.7734 P.3       1 GTP        -0.9715
     11 O1A        -3.5015    4.7779    3.3701 O.2       1 GTP         0.2707
     12 O2A        -1.7813    5.2194    1.4308 O.3       1 GTP         0.0326
     13 O5'        -2.0394    2.8623    2.3117 O.3       1 GTP         0.1618
     14 C5'        -0.8811    2.4285    1.6206 C.3       1 GTP         0.1504
     15 C4'        -0.1994    1.3333    2.4288 C.3       1 GTP         0.1111
     16 O4'        -1.1285    0.2356    2.5840 O.3       1 GTP        -0.1436
     17 C3'         1.0324    0.7610    1.7344 C.3       1 GTP         0.1111
     18 O3'         1.9175    0.2377    2.7247 O.3       1 GTP        -0.2728
     19 C2'         0.4468   -0.3802    0.9263 C.3       1 GTP         0.1111
     20 O2'         1.3993   -1.3703    0.5961 O.3       1 GTP        -0.2728
     21 C1'        -0.6159   -0.9100    1.8769 C.3       1 GTP         0.0918
     22 N9         -1.7127   -1.6108    1.2130 N.pl3     1 GTP        -0.0449
     23 C8         -2.8667   -1.0365    0.7385 C.ar      1 GTP         0.4884
     24 N7         -3.6757   -1.9196    0.1868 N.2       1 GTP        -0.5260
     25 C5         -3.0088   -3.1018    0.3164 C.ar      1 GTP         0.4178
     26 C6         -3.4148   -4.4130   -0.1079 C.ar      1 GTP         0.2530
     27 O6         -4.4753   -4.6480   -0.6732 O.2       1 GTP        -0.2755
     28 N1         -2.4377   -5.3653    0.2144 N.pl3     1 GTP        -0.1604
     29 C2         -1.2132   -5.0902    0.8680 C.ar      1 GTP         0.4468
     30 N2         -0.4066   -6.1772    1.0834 N.pl3     1 GTP        -0.5618
     31 N3         -0.8672   -3.8786    1.2457 N.2       1 GTP        -0.4271
     32 C4         -1.7966   -2.9451    0.9439 C.ar      1 GTP         0.0498
     33 HOA2       -2.3673    5.1527    0.6470 H         1 GTP         0.2010
     34 H5'        -1.1757    2.0497    0.6364 H         1 GTP        -0.0393
     35 H5''       -0.2069    3.2809    1.4872 H         1 GTP        -0.0393
     36 H4'         0.0402    1.7079    3.4342 H         1 GTP        -0.0393
     37 H3'         1.5907    1.4859    1.1353 H         1 GTP        -0.0393
     38 HO3'        2.6839   -0.1150    2.2479 H         1 GTP         0.2010
     39 H2'        -0.0017    0.0018    0.0005 H         1 GTP        -0.0393
     40 HO2'        2.0953   -0.9375    0.0709 H         1 GTP         0.2010
     41 H1'        -0.1998   -1.6319    2.6178 H         1 GTP        -0.0393
     42 H8         -3.0589    0.0244    0.8247 H         1 GTP        -0.1369
     43 HN1        -2.6238   -6.3307   -0.0420 H         1 GTP         0.0865
     44 HN21        0.4646   -6.0341    1.5394 H         1 GTP         0.2048
     45 HN22       -0.7235   -7.0673    0.7753 H         1 GTP         0.2048
@<TRIPOS>BOND
     1    1    2 2
     2    1    3 1
     3    1    4 1
     4    1    5 1
     5    5    6 1
     6    6    7 2
     7    6    8 1
     8    6    9 1
     9    9   10 1
    10   10   11 2
    11   10   12 1
    12   10   13 1
    13   12   33 1
    14   13   14 1
    15   14   15 1
    16   14   34 1
    17   14   35 1
    18   15   16 1
    19   15   17 1
    20   15   36 1
    21   16   21 1
    22   17   18 1
    23   17   19 1
    24   17   37 1
    25   18   38 1
    26   19   20 1
    27   19   21 1
    28   19   39 1
    29   20   40 1
    30   21   22 1
    31   21   41 1
    32   22   23 ar
    33   22   32 ar
    34   23   24 ar
    35   23   42 1
    36   24   25 ar
    37   25   26 ar
    38   25   32 ar
    39   26   27 2
    40   26   28 ar
    41   28   29 ar
    42   28   43 1
    43   29   30 1
    44   29   31 ar
    45   30   44 1
    46   30   45 1
    47   31   32 ar
@<TRIPOS>SUBSTRUCTURE
     1 GTP         1 GROUP 0 A     ****
@<TRIPOS>MOLECULE
[[[5-(2-amino-6-oxo-1~{H}-purin-9-yl)-3,4-dihydroxy-tetrahydrofuran-2-yl]methoxy-hydroxy-phosphoryl]oxy-oxido-phosphoryl] phosphate
   45    47     1     0     0
SMALL
USER_CHARGES

@<TRIPOS>ATOM
      1 PG          1.9157    0.2577   -3.0770 P.3       1 GTP        -1.1921
      2 O1G         3.0883   -0.0818   -2.1630 O.co2     1 GTP         0.3195
      3 O2G         0.8895   -0.8601   -3.2264 O.co2     1 GTP         0.3195
      4 O3G         2.3198    0.9114   -4.3946 O.co2     1 GTP         0.3195
      5 O3B         1.1077    1.4525   -2.2797 O.3       1 GTP         0.4672
      6 PB          1.5751    2.9358   -1.7822 P.3       1 GTP        -1.1062
      7 O1B         2.6220    2.7836   -0.7013 O.co2     1 GTP         0.3195
      8 O2B         1.8395    3.7850   -3.0060 O.co2     1 GTP         0.3195
      9 O3A         0.1812    3.4344   -1.0958 O.3       1 GTP         0.4672
     10 PA         -0.0721    4.4467    0.1409 P.3       1 GTP        -0.9715
     11 O1A         0.8341    5.6436    0.1482 O.2       1 GTP         0.2707
     12 O2A        -1.6506    4.7887    0.0480 O.3       1 GTP         0.0326
     13 O5'         0.0166    3.5128    1.4591 O.3       1 GTP         0.1618
     14 C5'        -0.8811    2.4285    1.6206 C.3       1 GTP         0.1504
     15 C4'        -0.1994    1.3333    2.4288 C.3       1 GTP         0.1111
     16 O4'        -1.1285    0.2356    2.5840 O.3       1 GTP        -0.1436
     17 C3'         1.0324    0.7610    1.7344 C.3       1 GTP         0.1111
     18 O3'         1.9175    0.2377    2.7247 O.3       1 GTP        -0.2728
     19 C2'         0.4468   -0.3802    0.9263 C.3       1 GTP         0.1111
     20 O2'         1.3993   -1.3703    0.5961 O.3       1 GTP        -0.2728
     21 C1'        -0.6159   -0.9100    1.8769 C.3       1 GTP         0.0918
     22 N9         -1.7127   -1.6108    1.2130 N.pl3     1 GTP        -0.0449
     23 C8         -2.8667   -1.0365    0.7385 C.ar      1 GTP         0.4884
     24 N7         -3.6757   -1.9196    0.1868 N.2       1 GTP        -0.5260
     25 C5         -3.0088   -3.1018    0.3164 C.ar      1 GTP         0.4178
     26 C6         -3.4148   -4.4130   -0.1079 C.ar      1 GTP         0.2530
     27 O6         -4.4753   -4.6480   -0.6732 O.2       1 GTP        -0.2755
     28 N1         -2.4377   -5.3653    0.2144 N.pl3     1 GTP        -0.1604
     29 C2         -1.2132   -5.0902    0.8680 C.ar      1 GTP         0.4468
     30 N2         -0.4066   -6.1772    1.0834 N.pl3     1 GTP        -0.5618
     31 N3         -0.8672   -3.8786    1.2457 N.2       1 GTP        -0.4271
     32 C4         -1.7966   -2.9451    0.9439 C.ar      1 GTP         0.0498
     33 HOA2       -2.0605    5.3328    0.7536 H         1 GTP         0.2010
     34 H5'        -1.7777    2.7838    2.1390 H         1 GTP        -0.0393
     35 H5''       -1.1661    2.0530    0.6323 H         1 GTP        -0.0393
     36 H4'         0.0402    1.7079    3.4342 H         1 GTP        -0.0393
     37 H3'         1.5907    1.4859    1.1353 H         1 GTP        -0.0393
     38 HO3'        2.6839   -0.1150    2.2479 H         1 GTP         0.2010
     39 H2'        -0.0017    0.0018    0.0005 H         1 GTP        -0.0393
     40 HO2'        2.0953   -0.9375    0.0709 H         1 GTP         0.2010
     41 H1'        -0.1998   -1.6319    2.6178 H         1 GTP        -0.0393
     42 H8         -3.0589    0.0244    0.8247 H         1 GTP        -0.1369
     43 HN1        -2.6238   -6.3307   -0.0420 H         1 GTP         0.0865
     44 HN21        0.4646   -6.0341    1.5394 H         1 GTP         0.2048
     45 HN22       -0.7235   -7.0673    0.7753 H         1 GTP         0.2048
@<TRIPOS>BOND
     1    1    2 2
     2    1    3 1
     3    1    4 1
     4    1    5 1
     5    5    6 1
     6    6    7 2
     7    6    8 1
     8    6    9 1
     9    9   10 1
    10   10   11 2
    11   10   12 1
    12   10   13 1
    13   12   33 1
    14   13   14 1
    15   14   15 1
    16   14   34 1
    17   14   35 1
    18   15   16 1
    19   15   17 1
    20   15   36 1
    21   16   21 1
    22   17   18 1
    23   17   19 1
    24   17   37 1
    25   18   38 1
    26   19   20 1
    27   19   21 1
    28   19   39 1
    29   20   40 1
    30   21   22 1
    31   21   41 1
    32   22   23 ar
    33   22   32 ar
    34   23   24 ar
    35   23   42 1
    36   24   25 ar
    37   25   26 ar
    38   25   32 ar
    39   26   27 2
    40   26   28 ar
    41   28   29 ar
    42   28   43 1
    43   29   30 1
    44   29   31 ar
    45   30   44 1
    46   30   45 1
    47   31   32 ar
@<TRIPOS>SUBSTRUCTURE
     1 GTP         1 GROUP 0 A     ****
@<TRIPOS>MOLECULE
[[[5-(2-amino-6-oxo-1~{H}-purin-9-yl)-3,4-dihydroxy-tetrahydrofuran-2-yl]methoxy-hydroxy-phosphoryl]oxy-oxido-phosphoryl] phosphate
   45    47     1     0     0
SMALL
USER_CHARGES

@<TRIPOS>ATOM
      1 PG         -1.0058    8.3556    0.6398 P.3       1 GTP        -1.1921
      2 O1G        -1.9358    9.2798    1.4185 O.co2     1 GTP         0.3195
      3 O2G         0.2639    9.0263    0.1270 O.co2     1 GTP         0.3195
      4 O3G        -1.7123    7.4871   -0.3960 O.co2     1 GTP         0.3195
      5 O3B        -0.4730    7.2715    1.7609 O.3       1 GTP         0.4672
      6 PB         -1.2706    6.2091    2.7102 P.3       1 GTP        -1.1062
      7 O1B        -0.2622    5.3504    3.4406 O.co2     1 GTP         0.3195
      8 O2B        -2.3433    6.9614    3.4666 O.co2     1 GTP         0.3195
      9 O3A        -1.9864    5.3082    1.5532 O.3       1 GTP         0.4672
     10 PA         -2.9678    4.0282    1.6820 P.3       1 GTP        -0.9715
     11 O1A        -4.2384    4.3035    2.4327 O.2       1 GTP         0.2707
     12 O2A        -3.1728    3.5385    0.1537 O.3       1 GTP         0.0326
     13 O5'        -2.0394    2.8623    2.3117 O.3       1 GTP         0.1618
     14 C5'        -0.8811    2.4285    1.6206 C.3       1 GTP         0.1504
     15 C4'        -0.1994    1.3333    2.4288 C.3       1 GTP         0.1111
     16 O4'        -1.1285    0.2356    2.5840 O.3       1 GTP        -0.1436
     17 C3'         1.0324    0.7610    1.7344 C.3       1 GTP         0.1111
     18 O3'         1.9175    0.2377    2.7247 O.3       1 GTP        -0.2728
     19 C2'         0.4468   -0.3802    0.9263 C.3       1 GTP         0.1111
     20 O2'         1.3993   -1.3703    0.5961 O.3       1 GTP        -0.2728
     21 C1'        -0.6159   -0.9100    1.8769 C.3       1 GTP         0.0918
     22 N9         -1.7127   -1.6108    1.2130 N.pl3     1 GTP        -0.0449
     23 C8         -2.5489   -1.0812    0.2607 C.ar      1 GTP         0.4884
     24 N7         -3.4468   -1.9516   -0.1576 N.2       1 GTP        -0.5260
     25 C5         -3.1696   -3.0787    0.5579 C.ar      1 GTP         0.4178
     26 C6         -3.8307   -4.3536    0.5166 C.ar      1 GTP         0.2530
     27 O6         -4.7841   -4.6033   -0.2101 O.2       1 GTP        -0.2755
     28 N1         -3.2356   -5.2522    1.4132 N.pl3     1 GTP        -0.1604
     29 C2         -2.1338   -4.9602    2.2517 C.ar      1 GTP         0.4468
     30 N2         -1.7156   -5.9923    3.0507 N.pl3     1 GTP        -0.5618
     31 N3         -1.5477   -3.7827    2.2686 N.2       1 GTP        -0.4271
     32 C4         -2.1070   -2.9013    1.4104 C.ar      1 GTP         0.0498
     33 HOA2       -3.6765    2.7144   -0.0170 H         1 GTP         0.2010
     34 H5'        -1.1757    2.0497    0.6364 H         1 GTP        -0.0393
     35 H5''       -0.2069    3.2809    1.4872 H         1 GTP        -0.0393
     36 H4'         0.0402    1.7079    3.4342 H         1 GTP        -0.0393
     37 H3'         1.5907    1.4859    1.1353 H         1 GTP        -0.0393
     38 HO3'        2.6839   -0.1150    2.2479 H         1 GTP         0.2010
     39 H2'        -0.0017    0.0018    0.0005 H         1 GTP        -0.0393
     40 HO2'        2.0953   -0.9375    0.0709 H         1 GTP         0.2010
     41 H1'        -0.1998   -1.6319    2.6178 H         1 GTP        -0.0393
     42 H8         -2.4545   -0.0604   -0.0844 H         1 GTP        -0.1369
     43 HN1        -3.6270   -6.1884    1.4651 H         1 GTP         0.0865
     44 HN21       -0.9445   -5.8354    3.6574 H         1 GTP         0.2048
     45 HN22       -2.1993   -6.8585    2.9930 H         1 GTP         0.2048
@<TRIPOS>BOND
     1    1    2 2
     2    1    3 1
     3    1    4 1
     4    1    5 1
     5    5    6 1
     6    6    7 2
     7    6    8 1
     8    6    9 1
     9    9   10 1
    10   10   11 2
    11   10   12 1
    12   10   13 1
    13   12   33 1
    14   13   14 1
    15   14   15 1
    16   14   34 1
    17   14   35 1
    18   15   16 1
    19   15   17 1
    20   15   36 1
    21   16   21 1
    22   17   18 1
    23   17   19 1
    24   17   37 1
    25   18   38 1
    26   19   20 1
    27   19   21 1
    28   19   39 1
    29   20   40 1
    30   21   22 1
    31   21   41 1
    32   22   23 ar
    33   22   32 ar
    34   23   24 ar
    35   23   42 1
    36   24   25 ar
    37   25   26 ar
    38   25   32 ar
    39   26   27 2
    40   26   28 ar
    41   28   29 ar
    42   28   43 1
    43   29   30 1
    44   29   31 ar
    45   30   44 1
    46   30   45 1
    47   31   32 ar
@<TRIPOS>SUBSTRUCTURE
     1 GTP         1 GROUP 0 A     ****
@<TRIPOS>MOLECULE
[[[5-(2-amino-6-oxo-1~{H}-purin-9-yl)-3,4-dihydroxy-tetrahydrofuran-2-yl]methoxy-hydroxy-phosphoryl]oxy-oxido-phosphoryl] phosphate
   45    47     1     0     0
SMALL
USER_CHARGES

@<TRIPOS>ATOM
      1 PG         -5.7726    3.7300   -2.1349 P.3       1 GTP        -1.1921
      2 O1G        -5.1214    3.9413   -3.4976 O.co2     1 GTP         0.3195
      3 O2G        -6.3007    2.3189   -1.9013 O.co2     1 GTP         0.3195
      4 O3G        -6.7449    4.8332   -1.7297 O.co2     1 GTP         0.3195
      5 O3B        -4.5333    3.8874   -1.0600 O.3       1 GTP         0.4672
      6 PB         -3.5157    5.1256   -0.7482 P.3       1 GTP        -1.1062
      7 O1B        -2.6316    5.3502   -1.9547 O.co2     1 GTP         0.3195
      8 O2B        -4.3185    6.2604   -0.1510 O.co2     1 GTP         0.3195
      9 O3A        -2.6241    4.4418    0.4352 O.3       1 GTP         0.4672
     10 PA         -3.0699    3.8636    1.8791 P.3       1 GTP        -0.9715
     11 O1A        -3.7108    4.8828    2.7759 O.2       1 GTP         0.2707
     12 O2A        -4.0026    2.5917    1.5188 O.3       1 GTP         0.0326
     13 O5'        -1.7333    3.1724    2.4738 O.3       1 GTP         0.1618
     14 C5'        -0.8811    2.4285    1.6206 C.3       1 GTP         0.1504
     15 C4'        -0.1994    1.3333    2.4288 C.3       1 GTP         0.1111
     16 O4'        -1.1285    0.2356    2.5840 O.3       1 GTP        -0.1436
     17 C3'         1.0324    0.7610    1.7344 C.3       1 GTP         0.1111
     18 O3'         1.9175    0.2377    2.7247 O.3       1 GTP        -0.2728
     19 C2'         0.4468   -0.3802    0.9263 C.3       1 GTP         0.1111
     20 O2'         1.3993   -1.3703    0.5961 O.3       1 GTP        -0.2728
     21 C1'        -0.6159   -0.9100    1.8769 C.3       1 GTP         0.0918
     22 N9         -1.7127   -1.6108    1.2130 N.pl3     1 GTP        -0.0449
     23 C8         -2.8667   -1.0365    0.7385 C.ar      1 GTP         0.4884
     24 N7         -3.6757   -1.9196    0.1868 N.2       1 GTP        -0.5260
     25 C5         -3.0088   -3.1018    0.3164 C.ar      1 GTP         0.4178
     26 C6         -3.4148   -4.4130   -0.1079 C.ar      1 GTP         0.2530
     27 O6         -4.4753   -4.6480   -0.6732 O.2       1 GTP        -0.2755
     28 N1         -2.4377   -5.3653    0.2144 N.pl3     1 GTP        -0.1604
     29 C2         -1.2132   -5.0902    0.8680 C.ar      1 GTP         0.4468
     30 N2         -0.4066   -6.1772    1.0834 N.pl3     1 GTP        -0.5618
     31 N3         -0.8672   -3.8786    1.2457 N.2       1 GTP        -0.4271
     32 C4         -1.7966   -2.9451    0.9439 C.ar      1 GTP         0.0498
     33 HOA2       -4.8538    2.7436    1.0557 H         1 GTP         0.2010
     34 H5'        -1.4792    1.9919    0.8140 H         1 GTP        -0.0393
     35 H5''       -0.1359    3.1032    1.1865 H         1 GTP        -0.0393
     36 H4'         0.0402    1.7079    3.4342 H         1 GTP        -0.0393
     37 H3'         1.5907    1.4859    1.1353 H         1 GTP        -0.0393
     38 HO3'        2.6839   -0.1150    2.2479 H         1 GTP         0.2010
     39 H2'        -0.0017    0.0018    0.0005 H         1 GTP        -0.0393
     40 HO2'        2.0953   -0.9375    0.0709 H         1 GTP         0.2010
     41 H1'        -0.1998   -1.6319    2.6178 H         1 GTP        -0.0393
     42 H8         -3.0589    0.0244    0.8247 H         1 GTP        -0.1369
     43 HN1        -2.6238   -6.3307   -0.0420 H         1 GTP         0.0865
     44 HN21        0.4646   -6.0341    1.5394 H         1 GTP         0.2048
     45 HN22       -0.7235   -7.0673    0.7753 H         1 GTP         0.2048
@<TRIPOS>BOND
     1    1    2 2
     2    1    3 1
     3    1    4 1
     4    1    5 1
     5    5    6 1
     6    6    7 2
     7    6    8 1
     8    6    9 1
     9    9   10 1
    10   10   11 2
    11   10   12 1
    12   10   13 1
    13   12   33 1
    14   13   14 1
    15   14   15 1
    16   14   34 1
    17   14   35 1
    18   15   16 1
    19   15   17 1
    20   15   36 1
    21   16   21 1
    22   17   18 1
    23   17   19 1
    24   17   37 1
    25   18   38 1
    26   19   20 1
    27   19   21 1
    28   19   39 1
    29   20   40 1
    30   21   22 1
    31   21   41 1
    32   22   23 ar
    33   22   32 ar
    34   23   24 ar
    35   23   42 1
    36   24   25 ar
    37   25   26 ar
    38   25   32 ar
    39   26   27 2
    40   26   28 ar
    41   28   29 ar
    42   28   43 1
    43   29   30 1
    44   29   31 ar
    45   30   44 1
    46   30   45 1
    47   31   32 ar
@<TRIPOS>SUBSTRUCTURE
     1 GTP         1 GROUP 0 A     ****
@<TRIPOS>MOLECULE
[[[5-(2-amino-6-oxo-1~{H}-purin-9-yl)-3,4-dihydroxy-tetrahydrofuran-2-yl]methoxy-hydroxy-phosphoryl]oxy-oxido-phosphoryl] phosphate
   45    47     1     0     0
SMALL
USER_CHARGES

@<TRIPOS>ATOM
      1 PG         -5.3329    5.3934   -1.7882 P.3       1 GTP        -1.1921
      2 O1G        -4.9338    6.4993   -2.7595 O.co2     1 GTP         0.3195
      3 O2G        -5.7050    4.0736   -2.4551 O.co2     1 GTP         0.3195
      4 O3G        -6.3071    5.8380   -0.7021 O.co2     1 GTP         0.3195
      5 O3B        -3.9491    5.0580   -0.9585 O.3       1 GTP         0.4672
      6 PB         -2.9924    5.9896   -0.0188 P.3       1 GTP        -1.1062
      7 O1B        -2.3396    7.0480   -0.8797 O.co2     1 GTP         0.3195
      8 O2B        -3.7707    6.3684    1.2220 O.co2     1 GTP         0.3195
      9 O3A        -1.8678    4.8810    0.3924 O.3       1 GTP         0.4672
     10 PA         -0.5530    5.0212    1.3251 P.3       1 GTP        -0.9715
     11 O1A         0.4406    6.0342    0.8349 O.2       1 GTP         0.2707
     12 O2A        -1.1505    5.3124    2.8001 O.3       1 GTP         0.0326
     13 O5'         0.0166    3.5128    1.4591 O.3       1 GTP         0.1618
     14 C5'        -0.8811    2.4285    1.6206 C.3       1 GTP         0.1504
     15 C4'        -0.1994    1.3333    2.4288 C.3       1 GTP         0.1111
     16 O4'        -1.1285    0.2356    2.5840 O.3       1 GTP        -0.1436
     17 C3'         1.0324    0.7610    1.7344 C.3       1 GTP         0.1111
     18 O3'         1.9175    0.2377    2.7247 O.3       1 GTP        -0.2728
     19 C2'         0.4468   -0.3802    0.9263 C.3       1 GTP         0.1111
     20 O2'         1.3993   -1.3703    0.5961 O.3       1 GTP        -0.2728
     21 C1'        -0.6159   -0.9100    1.8769 C.3       1 GTP         0.0918
     22 N9         -1.7127   -1.6108    1.2130 N.pl3     1 GTP        -0.0449
     23 C8         -1.7695   -2.9586    0.9546 C.ar      1 GTP         0.4884
     24 N7         -2.8846   -3.3047    0.3416 N.2       1 GTP        -0.5260
     25 C5         -3.5626   -2.1296    0.2052 C.ar      1 GTP         0.4178
     26 C6         -4.8477   -1.8989   -0.3942 C.ar      1 GTP         0.2530
     27 O6         -5.5373   -2.7819   -0.8881 O.2       1 GTP        -0.2755
     28 N1         -5.1895   -0.5407   -0.3318 N.pl3     1 GTP        -0.1604
     29 C2         -4.3899    0.4774    0.2398 C.ar      1 GTP         0.4468
     30 N2         -4.9233    1.7390    0.1898 N.pl3     1 GTP        -0.5618
     31 N3         -3.2159    0.2368    0.7822 N.2       1 GTP        -0.4271
     32 C4         -2.8678   -1.0679    0.7322 C.ar      1 GTP         0.0498
     33 HOA2       -1.6384    6.1486    2.9578 H         1 GTP         0.2010
     34 H5'        -1.7777    2.7838    2.1390 H         1 GTP        -0.0393
     35 H5''       -1.1661    2.0530    0.6323 H         1 GTP        -0.0393
     36 H4'         0.0402    1.7079    3.4342 H         1 GTP        -0.0393
     37 H3'         1.5907    1.4859    1.1353 H         1 GTP        -0.0393
     38 HO3'        2.6839   -0.1150    2.2479 H         1 GTP         0.2010
     39 H2'        -0.0017    0.0018    0.0005 H         1 GTP        -0.0393
     40 HO2'        2.0953   -0.9375    0.0709 H         1 GTP         0.2010
     41 H1'        -0.1998   -1.6319    2.6178 H         1 GTP        -0.0393
     42 H8         -0.9713   -3.6323    1.2352 H         1 GTP        -0.1369
     43 HN1        -6.0831   -0.2651   -0.7290 H         1 GTP         0.0865
     44 HN21       -4.3985    2.4878    0.5788 H         1 GTP         0.2048
     45 HN22       -5.8145    1.8572   -0.2335 H         1 GTP         0.2048
@<TRIPOS>BOND
     1    1    2 2
     2    1    3 1
     3    1    4 1
     4    1    5 1
     5    5    6 1
     6    6    7 2
     7    6    8 1
     8    6    9 1
     9    9   10 1
    10   10   11 2
    11   10   12 1
    12   10   13 1
    13   12   33 1
    14   13   14 1
    15   14   15 1
    16   14   34 1
    17   14   35 1
    18   15   16 1
    19   15   17 1
    20   15   36 1
    21   16   21 1
    22   17   18 1
    23   17   19 1
    24   17   37 1
    25   18   38 1
    26   19   20 1
    27   19   21 1
    28   19   39 1
    29   20   40 1
    30   21   22 1
    31   21   41 1
    32   22   23 ar
    33   22   32 ar
    34   23   24 ar
    35   23   42 1
    36   24   25 ar
    37   25   26 ar
    38   25   32 ar
    39   26   27 2
    40   26   28 ar
    41   28   29 ar
    42   28   43 1
    43   29   30 1
    44   29   31 ar
    45   30   44 1
    46   30   45 1
    47   31   32 ar
@<TRIPOS>SUBSTRUCTURE
     1 GTP         1 GROUP 0 A     ****
@<TRIPOS>MOLECULE
[[[5-(2-amino-6-oxo-1~{H}-purin-9-yl)-3,4-dihydroxy-tetrahydrofuran-2-yl]methoxy-hydroxy-phosphoryl]oxy-oxido-phosphoryl] phosphate
   45    47     1     0     0
SMALL
USER_CHARGES

@<TRIPOS>ATOM
      1 PG         -1.0927    1.6997    6.6379 P.3       1 GTP        -1.1921
      2 O1G        -2.1895    2.2228    7.5593 O.co2     1 GTP         0.3195
      3 O2G        -1.4138    0.3672    5.9699 O.co2     1 GTP         0.3195
      4 O3G         0.3104    1.7759    7.2315 O.co2     1 GTP         0.3195
      5 O3B        -1.0507    2.7818    5.3957 O.3       1 GTP         0.4672
      6 PB         -0.7661    4.3893    5.3638 P.3       1 GTP        -1.1062
      7 O1B        -1.8921    5.1015    6.0797 O.co2     1 GTP         0.3195
      8 O2B         0.6759    4.6235    5.7570 O.co2     1 GTP         0.3195
      9 O3A        -0.9157    4.6512    3.7600 O.3       1 GTP         0.4672
     10 PA         -2.1747    4.4070    2.7734 P.3       1 GTP        -0.9715
     11 O1A        -3.5015    4.7779    3.3701 O.2       1 GTP         0.2707
     12 O2A        -1.7813    5.2194    1.4308 O.3       1 GTP         0.0326
     13 O5'        -2.0394    2.8623    2.3117 O.3       1 GTP         0.1618
     14 C5'        -0.8811    2.4285    1.6206 C.3       1 GTP         0.1504
     15 C4'        -0.1994    1.3333    2.4288 C.3       1 GTP         0.1111
     16 O4'        -1.1285    0.2356    2.5840 O.3       1 GTP        -0.1436
     17 C3'         1.0324    0.7610    1.7344 C.3       1 GTP         0.1111
     18 O3'         1.9175    0.2377    2.7247 O.3       1 GTP        -0.2728
     19 C2'         0.4468   -0.3802    0.9263 C.3       1 GTP         0.1111
     20 O2'         1.3993   -1.3703    0.5961 O.3       1 GTP        -0.2728
     21 C1'        -0.6159   -0.9100    1.8769 C.3       1 GTP         0.0918
     22 N9         -1.7127   -1.6108    1.2130 N.pl3     1 GTP        -0.0449
     23 C8         -2.8667   -1.0365    0.7385 C.ar      1 GTP         0.4884
     24 N7         -3.6757   -1.9196    0.1868 N.2       1 GTP        -0.5260
     25 C5         -3.0088   -3.1018    0.3164 C.ar      1 GTP         0.4178
     26 C6         -3.4148   -4.4130   -0.1079 C.ar      1 GTP         0.2530
     27 O6         -4.4753   -4.6480   -0.6732 O.2       1 GTP        -0.2755
     28 N1         -2.4377   -5.3653    0.2144 N.pl3     1 GTP        -0.1604
     29 C2         -1.2132   -5.0902    0.8680 C.ar      1 GTP         0.4468
     30 N2         -0.4066   -6.1772    1.0834 N.pl3     1 GTP        -0.5618
     31 N3         -0.8672   -3.8786    1.2457 N.2       1 GTP        -0.4271
     32 C4         -1.7966   -2.9451    0.9439 C.ar      1 GTP         0.0498
     33 HOA2       -2.3673    5.1527    0.6470 H         1 GTP         0.2010
     34 H5'        -1.1757    2.0497    0.6364 H         1 GTP        -0.0393
     35 H5''       -0.2069    3.2809    1.4872 H         1 GTP        -0.0393
     36 H4'         0.0402    1.7079    3.4342 H         1 GTP        -0.0393
     37 H3'         1.5907    1.4859    1.1353 H         1 GTP        -0.0393
     38 HO3'        2.6839   -0.1150    2.2479 H         1 GTP         0.2010
     39 H2'        -0.0017    0.0018    0.0005 H         1 GTP        -0.0393
     40 HO2'        2.0953   -0.9375    0.0709 H         1 GTP         0.2010
     41 H1'        -0.1998   -1.6319    2.6178 H         1 GTP        -0.0393
     42 H8         -3.0589    0.0244    0.8247 H         1 GTP        -0.1369
     43 HN1        -2.6238   -6.3307   -0.0420 H         1 GTP         0.0865
     44 HN21        0.4646   -6.0341    1.5394 H         1 GTP         0.2048
     45 HN22       -0.7235   -7.0673    0.7753 H         1 GTP         0.2048
@<TRIPOS>BOND
     1    1    2 2
     2    1    3 1
     3    1    4 1
     4    1    5 1
     5    5    6 1
     6    6    7 2
     7    6    8 1
     8    6    9 1
     9    9   10 1
    10   10   11 2
    11   10   12 1
    12   10   13 1
    13   12   33 1
    14   13   14 1
    15   14   15 1
    16   14   34 1
    17   14   35 1
    18   15   16 1
    19   15   17 1
    20   15   36 1
    21   16   21 1
    22   17   18 1
    23   17   19 1
    24   17   37 1
    25   18   38 1
    26   19   20 1
    27   19   21 1
    28   19   39 1
    29   20   40 1
    30   21   22 1
    31   21   41 1
    32   22   23 ar
    33   22   32 ar
    34   23   24 ar
    35   23   42 1
    36   24   25 ar
    37   25   26 ar
    38   25   32 ar
    39   26   27 2
    40   26   28 ar
    41   28   29 ar
    42   28   43 1
    43   29   30 1
    44   29   31 ar
    45   30   44 1
    46   30   45 1
    47   31   32 ar
@<TRIPOS>SUBSTRUCTURE
     1 GTP         1 GROUP 0 A     ****
@<TRIPOS>MOLECULE
[[[5-(2-amino-6-oxo-1~{H}-purin-9-yl)-3,4-dihydroxy-tetrahydrofuran-2-yl]methoxy-hydroxy-phosphoryl]oxy-oxido-phosphoryl] phosphate
   45    47     1     0     0
SMALL
USER_CHARGES

@<TRIPOS>ATOM
      1 PG         -5.1224    7.6243   -0.3745 P.3       1 GTP        -1.1921
      2 O1G        -6.4007    6.9181   -0.8136 O.co2     1 GTP         0.3195
      3 O2G        -5.2728    8.4753    0.8817 O.co2     1 GTP         0.3195
      4 O3G        -4.3698    8.3149   -1.5074 O.co2     1 GTP         0.3195
      5 O3B        -4.1135    6.4018    0.0766 O.3       1 GTP         0.4672
      6 PB         -3.5157    5.1256   -0.7482 P.3       1 GTP        -1.1062
      7 O1B        -4.6528    4.1928   -1.1007 O.co2     1 GTP         0.3195
      8 O2B        -2.5792    5.6474   -1.8156 O.co2     1 GTP         0.3195
      9 O3A        -2.6241    4.4418    0.4352 O.3       1 GTP         0.4672
     10 PA         -3.0699    3.8636    1.8791 P.3       1 GTP        -0.9715
     11 O1A        -3.7108    4.8828    2.7759 O.2       1 GTP         0.2707
     12 O2A        -4.0026    2.5917    1.5188 O.3       1 GTP         0.0326
     13 O5'        -1.7333    3.1724    2.4738 O.3       1 GTP         0.1618
     14 C5'        -0.8811    2.4285    1.6206 C.3       1 GTP         0.1504
     15 C4'        -0.1994    1.3333    2.4288 C.3       1 GTP         0.1111
     16 O4'        -1.1285    0.2356    2.5840 O.3       1 GTP        -0.1436
     17 C3'         1.0324    0.7610    1.7344 C.3       1 GTP         0.1111
     18 O3'         1.9175    0.2377    2.7247 O.3       1 GTP        -0.2728
     19 C2'         0.4468   -0.3802    0.9263 C.3       1 GTP         0.1111
     20 O2'         1.3993   -1.3703    0.5961 O.3       1 GTP        -0.2728
     21 C1'        -0.6159   -0.9100    1.8769 C.3       1 GTP         0.0918
     22 N9         -1.7127   -1.6108    1.2130 N.pl3     1 GTP        -0.0449
     23 C8         -2.8667   -1.0365    0.7385 C.ar      1 GTP         0.4884
     24 N7         -3.6757   -1.9196    0.1868 N.2       1 GTP        -0.5260
     25 C5         -3.0088   -3.1018    0.3164 C.ar      1 GTP         0.4178
     26 C6         -3.4148   -4.4130   -0.1079 C.ar      1 GTP         0.2530
     27 O6         -4.4753   -4.6480   -0.6732 O.2       1 GTP        -0.2755
     28 N1         -2.4377   -5.3653    0.2144 N.pl3     1 GTP        -0.1604
     29 C2         -1.2132   -5.0902    0.8680 C.ar      1 GTP         0.4468
     30 N2         -0.4066   -6.1772    1.0834 N.pl3     1 GTP        -0.5618
     31 N3         -0.8672   -3.8786    1.2457 N.2       1 GTP        -0.4271
     32 C4         -1.7966   -2.9451    0.9439 C.ar      1 GTP         0.0498
     33 HOA2       -4.3319    2.0233    2.2473 H         1 GTP         0.2010
     34 H5'        -1.4792    1.9919    0.8140 H         1 GTP        -0.0393
     35 H5''       -0.1359    3.1032    1.1865 H         1 GTP        -0.0393
     36 H4'         0.0402    1.7079    3.4342 H         1 GTP        -0.0393
     37 H3'         1.5907    1.4859    1.1353 H         1 GTP        -0.0393
     38 HO3'        2.6839   -0.1150    2.2479 H         1 GTP         0.2010
     39 H2'        -0.0017    0.0018    0.0005 H         1 GTP        -0.0393
     40 HO2'        2.0953   -0.9375    0.0709 H         1 GTP         0.2010
     41 H1'        -0.1998   -1.6319    2.6178 H         1 GTP        -0.0393
     42 H8         -3.0589    0.0244    0.8247 H         1 GTP        -0.1369
     43 HN1        -2.6238   -6.3307   -0.0420 H         1 GTP         0.0865
     44 HN21        0.4646   -6.0341    1.5394 H         1 GTP         0.2048
     45 HN22       -0.7235   -7.0673    0.7753 H         1 GTP         0.2048
@<TRIPOS>BOND
     1    1    2 2
     2    1    3 1
     3    1    4 1
     4    1    5 1
     5    5    6 1
     6    6    7 2
     7    6    8 1
     8    6    9 1
     9    9   10 1
    10   10   11 2
    11   10   12 1
    12   10   13 1
    13   12   33 1
    14   13   14 1
    15   14   15 1
    16   14   34 1
    17   14   35 1
    18   15   16 1
    19   15   17 1
    20   15   36 1
    21   16   21 1
    22   17   18 1
    23   17   19 1
    24   17   37 1
    25   18   38 1
    26   19   20 1
    27   19   21 1
    28   19   39 1
    29   20   40 1
    30   21   22 1
    31   21   41 1
    32   22   23 ar
    33   22   32 ar
    34   23   24 ar
    35   23   42 1
    36   24   25 ar
    37   25   26 ar
    38   25   32 ar
    39   26   27 2
    40   26   28 ar
    41   28   29 ar
    42   28   43 1
    43   29   30 1
    44   29   31 ar
    45   30   44 1
    46   30   45 1
    47   31   32 ar
@<TRIPOS>SUBSTRUCTURE
     1 GTP         1 GROUP 0 A     ****
@<TRIPOS>MOLECULE
[[[5-(2-amino-6-oxo-1~{H}-purin-9-yl)-3,4-dihydroxy-tetrahydrofuran-2-yl]methoxy-hydroxy-phosphoryl]oxy-oxido-phosphoryl] phosphate
   45    47     1     0     0
SMALL
USER_CHARGES

@<TRIPOS>ATOM
      1 PG         -0.2129    7.4406   -3.4334 P.3       1 GTP        -1.1921
      2 O1G        -1.4735    8.2687   -3.2081 O.co2     1 GTP         0.3195
      3 O2G         1.0835    8.1551   -3.0680 O.co2     1 GTP         0.3195
      4 O3G        -0.1697    6.7226   -4.7785 O.co2     1 GTP         0.3195
      5 O3B        -0.3278    6.2138   -2.3391 O.3       1 GTP         0.4672
      6 PB         -1.4515    5.0483   -2.1269 P.3       1 GTP        -1.1062
      7 O1B        -2.7501    5.6915   -1.6937 O.co2     1 GTP         0.3195
      8 O2B        -1.4042    4.1208   -3.3212 O.co2     1 GTP         0.3195
      9 O3A        -0.7944    4.2793   -0.8464 O.3       1 GTP         0.4672
     10 PA         -0.4427    4.8271    0.6349 P.3       1 GTP        -0.9715
     11 O1A         0.5394    5.9624    0.6510 O.2       1 GTP         0.2707
     12 O2A        -1.8876    5.1681    1.2779 O.3       1 GTP         0.0326
     13 O5'         0.0166    3.5128    1.4591 O.3       1 GTP         0.1618
     14 C5'        -0.8811    2.4285    1.6206 C.3       1 GTP         0.1504
     15 C4'        -0.1994    1.3333    2.4288 C.3       1 GTP         0.1111
     16 O4'        -1.1285    0.2356    2.5840 O.3       1 GTP        -0.1436
     17 C3'         1.0324    0.7610    1.7344 C.3       1 GTP         0.1111
     18 O3'         1.9175    0.2377    2.7247 O.3       1 GTP        -0.2728
     19 C2'         0.4468   -0.3802    0.9263 C.3       1 GTP         0.1111
     20 O2'         1.3993   -1.3703    0.5961 O.3       1 GTP        -0.2728
     21 C1'        -0.6159   -0.9100    1.8769 C.3       1 GTP         0.0918
     22 N9         -1.7127   -1.6108    1.2130 N.pl3     1 GTP        -0.0449
     23 C8         -2.8667   -1.0365    0.7385 C.ar      1 GTP         0.4884
     24 N7         -3.6757   -1.9196    0.1868 N.2       1 GTP        -0.5260
     25 C5         -3.0088   -3.1018    0.3164 C.ar      1 GTP         0.4178
     26 C6         -3.4148   -4.4130   -0.1079 C.ar      1 GTP         0.2530
     27 O6         -4.4753   -4.6480   -0.6732 O.2       1 GTP        -0.2755
     28 N1         -2.4377   -5.3653    0.2144 N.pl3     1 GTP        -0.1604
     29 C2         -1.2132   -5.0902    0.8680 C.ar      1 GTP         0.4468
     30 N2         -0.4066   -6.1772    1.0834 N.pl3     1 GTP        -0.5618
     31 N3         -0.8672   -3.8786    1.2457 N.2       1 GTP        -0.4271
     32 C4         -1.7966   -2.9451    0.9439 C.ar      1 GTP         0.0498
     33 HOA2       -2.4241    5.8887    0.8841 H         1 GTP         0.2010
     34 H5'        -1.7777    2.7838    2.1390 H         1 GTP        -0.0393
     35 H5''       -1.1661    2.0530    0.6323 H         1 GTP        -0.0393
     36 H4'         0.0402    1.7079    3.4342 H         1 GTP        -0.0393
     37 H3'         1.5907    1.4859    1.1353 H         1 GTP        -0.0393
     38 HO3'        2.6839   -0.1150    2.2479 H         1 GTP         0.2010
     39 H2'        -0.0017    0.0018    0.0005 H         1 GTP        -0.0393
     40 HO2'        2.0953   -0.9375    0.0709 H         1 GTP         0.2010
     41 H1'        -0.1998   -1.6319    2.6178 H         1 GTP        -0.0393
     42 H8         -3.0589    0.0244    0.8247 H         1 GTP        -0.1369
     43 HN1        -2.6238   -6.3307   -0.0420 H         1 GTP         0.0865
     44 HN21        0.4646   -6.0341    1.5394 H         1 GTP         0.2048
     45 HN22       -0.7235   -7.0673    0.7753 H         1 GTP         0.2048
@<TRIPOS>BOND
     1    1    2 2
     2    1    3 1
     3    1    4 1
     4    1    5 1
     5    5    6 1
     6    6    7 2
     7    6    8 1
     8    6    9 1
     9    9   10 1
    10   10   11 2
    11   10   12 1
    12   10   13 1
    13   12   33 1
    14   13   14 1
    15   14   15 1
    16   14   34 1
    17   14   35 1
    18   15   16 1
    19   15   17 1
    20   15   36 1
    21   16   21 1
    22   17   18 1
    23   17   19 1
    24   17   37 1
    25   18   38 1
    26   19   20 1
    27   19   21 1
    28   19   39 1
    29   20   40 1
    30   21   22 1
    31   21   41 1
    32   22   23 ar
    33   22   32 ar
    34   23   24 ar
    35   23   42 1
    36   24   25 ar
    37   25   26 ar
    38   25   32 ar
    39   26   27 2
    40   26   28 ar
    41   28   29 ar
    42   28   43 1
    43   29   30 1
    44   29   31 ar
    45   30   44 1
    46   30   45 1
    47   31   32 ar
@<TRIPOS>SUBSTRUCTURE
     1 GTP         1 GROUP 0 A     ****
@<TRIPOS>MOLECULE
[[[5-(2-amino-6-oxo-1~{H}-purin-9-yl)-3,4-dihydroxy-tetrahydrofuran-2-yl]methoxy-hydroxy-phosphoryl]oxy-oxido-phosphoryl] phosphate
   45    47     1     0     0
SMALL
USER_CHARGES

@<TRIPOS>ATOM
      1 PG         -4.4952    6.7918   -1.1405 P.3       1 GTP        -1.1921
      2 O1G        -5.4043    5.9702   -2.0483 O.co2     1 GTP         0.3195
      3 O2G        -5.0977    7.1240    0.2202 O.co2     1 GTP         0.3195
      4 O3G        -3.8286    7.9769   -1.8318 O.co2     1 GTP         0.3195
      5 O3B        -3.2386    5.7823   -0.7974 O.3       1 GTP         0.4672
      6 PB         -2.1515    5.0343   -1.7591 P.3       1 GTP        -1.1062
      7 O1B        -2.8712    4.0131   -2.6117 O.co2     1 GTP         0.3195
      8 O2B        -1.2701    6.0901   -2.3893 O.co2     1 GTP         0.3195
      9 O3A        -1.2872    4.2498   -0.6187 O.3       1 GTP         0.4672
     10 PA         -0.4427    4.8271    0.6349 P.3       1 GTP        -0.9715
     11 O1A         0.6716    5.7555    0.2474 O.2       1 GTP         0.2707
     12 O2A        -1.5686    5.4793    1.5964 O.3       1 GTP         0.0326
     13 O5'         0.0166    3.5128    1.4591 O.3       1 GTP         0.1618
     14 C5'        -0.8811    2.4285    1.6206 C.3       1 GTP         0.1504
     15 C4'        -0.1994    1.3333    2.4288 C.3       1 GTP         0.1111
     16 O4'        -1.1285    0.2356    2.5840 O.3       1 GTP        -0.1436
     17 C3'         1.0324    0.7610    1.7344 C.3       1 GTP         0.1111
     18 O3'         1.9175    0.2377    2.7247 O.3       1 GTP        -0.2728
     19 C2'         0.4468   -0.3802    0.9263 C.3       1 GTP         0.1111
     20 O2'         1.3993   -1.3703    0.5961 O.3       1 GTP        -0.2728
     21 C1'        -0.6159   -0.9100    1.8769 C.3       1 GTP         0.0918
     22 N9         -1.7127   -1.6108    1.2130 N.pl3     1 GTP        -0.0449
     23 C8         -1.7695   -2.9586    0.9546 C.ar      1 GTP         0.4884
     24 N7         -2.8846   -3.3047    0.3416 N.2       1 GTP        -0.5260
     25 C5         -3.5626   -2.1296    0.2052 C.ar      1 GTP         0.4178
     26 C6         -4.8477   -1.8989   -0.3942 C.ar      1 GTP         0.2530
     27 O6         -5.5373   -2.7819   -0.8881 O.2       1 GTP        -0.2755
     28 N1         -5.1895   -0.5407   -0.3318 N.pl3     1 GTP        -0.1604
     29 C2         -4.3899    0.4774    0.2398 C.ar      1 GTP         0.4468
     30 N2         -4.9233    1.7390    0.1898 N.pl3     1 GTP        -0.5618
     31 N3         -3.2159    0.2368    0.7822 N.2       1 GTP        -0.4271
     32 C4         -2.8678   -1.0679    0.7322 C.ar      1 GTP         0.0498
     33 HOA2       -2.0726    6.2577    1.2766 H         1 GTP         0.2010
     34 H5'        -1.7777    2.7838    2.1390 H         1 GTP        -0.0393
     35 H5''       -1.1661    2.0530    0.6323 H         1 GTP        -0.0393
     36 H4'         0.0402    1.7079    3.4342 H         1 GTP        -0.0393
     37 H3'         1.5907    1.4859    1.1353 H         1 GTP        -0.0393
     38 HO3'        2.6839   -0.1150    2.2479 H         1 GTP         0.2010
     39 H2'        -0.0017    0.0018    0.0005 H         1 GTP        -0.0393
     40 HO2'        2.0953   -0.9375    0.0709 H         1 GTP         0.2010
     41 H1'        -0.1998   -1.6319    2.6178 H         1 GTP        -0.0393
     42 H8         -0.9713   -3.6323    1.2352 H         1 GTP        -0.1369
     43 HN1        -6.0831   -0.2651   -0.7290 H         1 GTP         0.0865
     44 HN21       -4.3985    2.4878    0.5788 H         1 GTP         0.2048
     45 HN22       -5.8145    1.8572   -0.2335 H         1 GTP         0.2048
@<TRIPOS>BOND
     1    1    2 2
     2    1    3 1
     3    1    4 1
     4    1    5 1
     5    5    6 1
     6    6    7 2
     7    6    8 1
     8    6    9 1
     9    9   10 1
    10   10   11 2
    11   10   12 1
    12   10   13 1
    13   12   33 1
    14   13   14 1
    15   14   15 1
    16   14   34 1
    17   14   35 1
    18   15   16 1
    19   15   17 1
    20   15   36 1
    21   16   21 1
    22   17   18 1
    23   17   19 1
    24   17   37 1
    25   18   38 1
    26   19   20 1
    27   19   21 1
    28   19   39 1
    29   20   40 1
    30   21   22 1
    31   21   41 1
    32   22   23 ar
    33   22   32 ar
    34   23   24 ar
    35   23   42 1
    36   24   25 ar
    37   25   26 ar
    38   25   32 ar
    39   26   27 2
    40   26   28 ar
    41   28   29 ar
    42   28   43 1
    43   29   30 1
    44   29   31 ar
    45   30   44 1
    46   30   45 1
    47   31   32 ar
@<TRIPOS>SUBSTRUCTURE
     1 GTP         1 GROUP 0 A     ****
@<TRIPOS>MOLECULE
[[[5-(2-amino-6-oxo-1~{H}-purin-9-yl)-3,4-dihydroxy-tetrahydrofuran-2-yl]methoxy-hydroxy-phosphoryl]oxy-oxido-phosphoryl] phosphate
   45    47     1     0     0
SMALL
USER_CHARGES

@<TRIPOS>ATOM
      1 PG         -0.4893    5.1748   -2.0671 P.3       1 GTP        -1.1921
      2 O1G        -0.8939    3.7071   -1.9791 O.co2     1 GTP         0.3195
      3 O2G        -0.5232    5.7539   -3.4773 O.co2     1 GTP         0.3195
      4 O3G         0.7710    5.5233   -1.2817 O.co2     1 GTP         0.3195
      5 O3B        -1.6841    5.9779   -1.2650 O.3       1 GTP         0.4672
      6 PB         -2.2170    5.8770    0.2751 P.3       1 GTP        -1.1062
      7 O1B        -1.0440    6.0557    1.2130 O.co2     1 GTP         0.3195
      8 O2B        -3.4546    6.7372    0.4060 O.co2     1 GTP         0.3195
      9 O3A        -2.6701    4.3095    0.2947 O.3       1 GTP         0.4672
     10 PA         -3.3127    3.4213    1.4847 P.3       1 GTP        -0.9715
     11 O1A        -4.3354    4.1490    2.3084 O.2       1 GTP         0.2707
     12 O2A        -3.8613    2.0987    0.7316 O.3       1 GTP         0.0326
     13 O5'        -2.0394    2.8623    2.3117 O.3       1 GTP         0.1618
     14 C5'        -0.8811    2.4285    1.6206 C.3       1 GTP         0.1504
     15 C4'        -0.1994    1.3333    2.4288 C.3       1 GTP         0.1111
     16 O4'        -1.1285    0.2356    2.5840 O.3       1 GTP        -0.1436
     17 C3'         1.0324    0.7610    1.7344 C.3       1 GTP         0.1111
     18 O3'         1.9175    0.2377    2.7247 O.3       1 GTP        -0.2728
     19 C2'         0.4468   -0.3802    0.9263 C.3       1 GTP         0.1111
     20 O2'         1.3993   -1.3703    0.5961 O.3       1 GTP        -0.2728
     21 C1'        -0.6159   -0.9100    1.8769 C.3       1 GTP         0.0918
     22 N9         -1.7127   -1.6108    1.2130 N.pl3     1 GTP        -0.0449
     23 C8         -2.5489   -1.0812    0.2607 C.ar      1 GTP         0.4884
     24 N7         -3.4468   -1.9516   -0.1576 N.2       1 GTP        -0.5260
     25 C5         -3.1696   -3.0787    0.5579 C.ar      1 GTP         0.4178
     26 C6         -3.8307   -4.3536    0.5166 C.ar      1 GTP         0.2530
     27 O6         -4.7841   -4.6033   -0.2101 O.2       1 GTP        -0.2755
     28 N1         -3.2356   -5.2522    1.4132 N.pl3     1 GTP        -0.1604
     29 C2         -2.1338   -4.9602    2.2517 C.ar      1 GTP         0.4468
     30 N2         -1.7156   -5.9923    3.0507 N.pl3     1 GTP        -0.5618
     31 N3         -1.5477   -3.7827    2.2686 N.2       1 GTP        -0.4271
     32 C4         -2.1070   -2.9013    1.4104 C.ar      1 GTP         0.0498
     33 HOA2       -4.2293    1.3651    1.2688 H         1 GTP         0.2010
     34 H5'        -1.1757    2.0497    0.6364 H         1 GTP        -0.0393
     35 H5''       -0.2069    3.2809    1.4872 H         1 GTP        -0.0393
     36 H4'         0.0402    1.7079    3.4342 H         1 GTP        -0.0393
     37 H3'         1.5907    1.4859    1.1353 H         1 GTP        -0.0393
     38 HO3'        2.6839   -0.1150    2.2479 H         1 GTP         0.2010
     39 H2'        -0.0017    0.0018    0.0005 H         1 GTP        -0.0393
     40 HO2'        2.0953   -0.9375    0.0709 H         1 GTP         0.2010
     41 H1'        -0.1998   -1.6319    2.6178 H         1 GTP        -0.0393
     42 H8         -2.4545   -0.0604   -0.0844 H         1 GTP        -0.1369
     43 HN1        -3.6270   -6.1884    1.4651 H         1 GTP         0.0865
     44 HN21       -0.9445   -5.8354    3.6574 H         1 GTP         0.2048
     45 HN22       -2.1993   -6.8585    2.9930 H         1 GTP         0.2048
@<TRIPOS>BOND
     1    1    2 2
     2    1    3 1
     3    1    4 1
     4    1    5 1
     5    5    6 1
     6    6    7 2
     7    6    8 1
     8    6    9 1
     9    9   10 1
    10   10   11 2
    11   10   12 1
    12   10   13 1
    13   12   33 1
    14   13   14 1
    15   14   15 1
    16   14   34 1
    17   14   35 1
    18   15   16 1
    19   15   17 1
    20   15   36 1
    21   16   21 1
    22   17   18 1
    23   17   19 1
    24   17   37 1
    25   18   38 1
    26   19   20 1
    27   19   21 1
    28   19   39 1
    29   20   40 1
    30   21   22 1
    31   21   41 1
    32   22   23 ar
    33   22   32 ar
    34   23   24 ar
    35   23   42 1
    36   24   25 ar
    37   25   26 ar
    38   25   32 ar
    39   26   27 2
    40   26   28 ar
    41   28   29 ar
    42   28   43 1
    43   29   30 1
    44   29   31 ar
    45   30   44 1
    46   30   45 1
    47   31   32 ar
@<TRIPOS>SUBSTRUCTURE
     1 GTP         1 GROUP 0 A     ****
@<TRIPOS>MOLECULE
[[[5-(2-amino-6-oxo-1~{H}-purin-9-yl)-3,4-dihydroxy-tetrahydrofuran-2-yl]methoxy-hydroxy-phosphoryl]oxy-oxido-phosphoryl] phosphate
   45    47     1     0     0
SMALL
USER_CHARGES

@<TRIPOS>ATOM
      1 PG         -2.2429    6.3794    6.5557 P.3       1 GTP        -1.1921
      2 O1G        -1.2491    7.5072    6.8125 O.co2     1 GTP         0.3195
      3 O2G        -3.7063    6.8025    6.6210 O.co2     1 GTP         0.3195
      4 O3G        -1.9337    5.0907    7.3109 O.co2     1 GTP         0.3195
      5 O3B        -2.0031    5.9740    4.9765 O.3       1 GTP         0.4672
      6 PB         -0.6830    5.4345    4.1812 P.3       1 GTP        -1.1062
      7 O1B         0.3609    6.5289    4.1638 O.co2     1 GTP         0.3195
      8 O2B        -0.3507    4.0518    4.6971 O.co2     1 GTP         0.3195
      9 O3A        -1.3176    5.2914    2.6847 O.3       1 GTP         0.4672
     10 PA         -2.5512    4.3890    2.1537 P.3       1 GTP        -0.9715
     11 O1A        -3.8625    4.6915    2.8192 O.2       1 GTP         0.2707
     12 O2A        -2.5345    4.6098    0.5511 O.3       1 GTP         0.0326
     13 O5'        -2.0394    2.8623    2.3117 O.3       1 GTP         0.1618
     14 C5'        -0.8811    2.4285    1.6206 C.3       1 GTP         0.1504
     15 C4'        -0.1994    1.3333    2.4288 C.3       1 GTP         0.1111
     16 O4'        -1.1285    0.2356    2.5840 O.3       1 GTP        -0.1436
     17 C3'         1.0324    0.7610    1.7344 C.3       1 GTP         0.1111
     18 O3'         1.9175    0.2377    2.7247 O.3       1 GTP        -0.2728
     19 C2'         0.4468   -0.3802    0.9263 C.3       1 GTP         0.1111
     20 O2'         1.3993   -1.3703    0.5961 O.3       1 GTP        -0.2728
     21 C1'        -0.6159   -0.9100    1.8769 C.3       1 GTP         0.0918
     22 N9         -1.7127   -1.6108    1.2130 N.pl3     1 GTP        -0.0449
     23 C8         -2.5489   -1.0812    0.2607 C.ar      1 GTP         0.4884
     24 N7         -3.4468   -1.9516   -0.1576 N.2       1 GTP        -0.5260
     25 C5         -3.1696   -3.0787    0.5579 C.ar      1 GTP         0.4178
     26 C6         -3.8307   -4.3536    0.5166 C.ar      1 GTP         0.2530
     27 O6         -4.7841   -4.6033   -0.2101 O.2       1 GTP        -0.2755
     28 N1         -3.2356   -5.2522    1.4132 N.pl3     1 GTP        -0.1604
     29 C2         -2.1338   -4.9602    2.2517 C.ar      1 GTP         0.4468
     30 N2         -1.7156   -5.9923    3.0507 N.pl3     1 GTP        -0.5618
     31 N3         -1.5477   -3.7827    2.2686 N.2       1 GTP        -0.4271
     32 C4         -2.1070   -2.9013    1.4104 C.ar      1 GTP         0.0498
     33 HOA2       -3.1540    4.0918   -0.0058 H         1 GTP         0.2010
     34 H5'        -1.1757    2.0497    0.6364 H         1 GTP        -0.0393
     35 H5''       -0.2069    3.2809    1.4872 H         1 GTP        -0.0393
     36 H4'         0.0402    1.7079    3.4342 H         1 GTP        -0.0393
     37 H3'         1.5907    1.4859    1.1353 H         1 GTP        -0.0393
     38 HO3'        2.6839   -0.1150    2.2479 H         1 GTP         0.2010
     39 H2'        -0.0017    0.0018    0.0005 H         1 GTP        -0.0393
     40 HO2'        2.0953   -0.9375    0.0709 H         1 GTP         0.2010
     41 H1'        -0.1998   -1.6319    2.6178 H         1 GTP        -0.0393
     42 H8         -2.4545   -0.0604   -0.0844 H         1 GTP        -0.1369
     43 HN1        -3.6270   -6.1884    1.4651 H         1 GTP         0.0865
     44 HN21       -0.9445   -5.8354    3.6574 H         1 GTP         0.2048
     45 HN22       -2.1993   -6.8585    2.9930 H         1 GTP         0.2048
@<TRIPOS>BOND
     1    1    2 2
     2    1    3 1
     3    1    4 1
     4    1    5 1
     5    5    6 1
     6    6    7 2
     7    6    8 1
     8    6    9 1
     9    9   10 1
    10   10   11 2
    11   10   12 1
    12   10   13 1
    13   12   33 1
    14   13   14 1
    15   14   15 1
    16   14   34 1
    17   14   35 1
    18   15   16 1
    19   15   17 1
    20   15   36 1
    21   16   21 1
    22   17   18 1
    23   17   19 1
    24   17   37 1
    25   18   38 1
    26   19   20 1
    27   19   21 1
    28   19   39 1
    29   20   40 1
    30   21   22 1
    31   21   41 1
    32   22   23 ar
    33   22   32 ar
    34   23   24 ar
    35   23   42 1
    36   24   25 ar
    37   25   26 ar
    38   25   32 ar
    39   26   27 2
    40   26   28 ar
    41   28   29 ar
    42   28   43 1
    43   29   30 1
    44   29   31 ar
    45   30   44 1
    46   30   45 1
    47   31   32 ar
@<TRIPOS>SUBSTRUCTURE
     1 GTP         1 GROUP 0 A     ****
@<TRIPOS>MOLECULE
[[[5-(2-amino-6-oxo-1~{H}-purin-9-yl)-3,4-dihydroxy-tetrahydrofuran-2-yl]methoxy-hydroxy-phosphoryl]oxy-oxido-phosphoryl] phosphate
   45    47     1     0     0
SMALL
USER_CHARGES

@<TRIPOS>ATOM
      1 PG         -0.2542    2.8917   -3.8239 P.3       1 GTP        -1.1921
      2 O1G         0.3913    2.2353   -2.6081 O.co2     1 GTP         0.3195
      3 O2G        -0.9628    1.9205   -4.7618 O.co2     1 GTP         0.3195
      4 O3G         0.6387    3.9036   -4.5348 O.co2     1 GTP         0.3195
      5 O3B        -1.4669    3.8140   -3.1958 O.3       1 GTP         0.4672
      6 PB         -1.4515    5.0483   -2.1269 P.3       1 GTP        -1.1062
      7 O1B        -0.4819    6.1038   -2.6100 O.co2     1 GTP         0.3195
      8 O2B        -2.8834    5.4034   -1.7920 O.co2     1 GTP         0.3195
      9 O3A        -0.7944    4.2793   -0.8464 O.3       1 GTP         0.4672
     10 PA         -0.4427    4.8271    0.6349 P.3       1 GTP        -0.9715
     11 O1A         0.5394    5.9624    0.6510 O.2       1 GTP         0.2707
     12 O2A        -1.8876    5.1681    1.2779 O.3       1 GTP         0.0326
     13 O5'         0.0166    3.5128    1.4591 O.3       1 GTP         0.1618
     14 C5'        -0.8811    2.4285    1.6206 C.3       1 GTP         0.1504
     15 C4'        -0.1994    1.3333    2.4288 C.3       1 GTP         0.1111
     16 O4'        -1.1285    0.2356    2.5840 O.3       1 GTP        -0.1436
     17 C3'         1.0324    0.7610    1.7344 C.3       1 GTP         0.1111
     18 O3'         1.9175    0.2377    2.7247 O.3       1 GTP        -0.2728
     19 C2'         0.4468   -0.3802    0.9263 C.3       1 GTP         0.1111
     20 O2'         1.3993   -1.3703    0.5961 O.3       1 GTP        -0.2728
     21 C1'        -0.6159   -0.9100    1.8769 C.3       1 GTP         0.0918
     22 N9         -1.7127   -1.6108    1.2130 N.pl3     1 GTP        -0.0449
     23 C8         -2.5489   -1.0812    0.2607 C.ar      1 GTP         0.4884
     24 N7         -3.4468   -1.9516   -0.1576 N.2       1 GTP        -0.5260
     25 C5         -3.1696   -3.0787    0.5579 C.ar      1 GTP         0.4178
     26 C6         -3.8307   -4.3536    0.5166 C.ar      1 GTP         0.2530
     27 O6         -4.7841   -4.6033   -0.2101 O.2       1 GTP        -0.2755
     28 N1         -3.2356   -5.2522    1.4132 N.pl3     1 GTP        -0.1604
     29 C2         -2.1338   -4.9602    2.2517 C.ar      1 GTP         0.4468
     30 N2         -1.7156   -5.9923    3.0507 N.pl3     1 GTP        -0.5618
     31 N3         -1.5477   -3.7827    2.2686 N.2       1 GTP        -0.4271
     32 C4         -2.1070   -2.9013    1.4104 C.ar      1 GTP         0.0498
     33 HOA2       -2.4241    5.8887    0.8841 H         1 GTP         0.2010
     34 H5'        -1.7777    2.7838    2.1390 H         1 GTP        -0.0393
     35 H5''       -1.1661    2.0530    0.6323 H         1 GTP        -0.0393
     36 H4'         0.0402    1.7079    3.4342 H         1 GTP        -0.0393
     37 H3'         1.5907    1.4859    1.1353 H         1 GTP        -0.0393
     38 HO3'        2.6839   -0.1150    2.2479 H         1 GTP         0.2010
     39 H2'        -0.0017    0.0018    0.0005 H         1 GTP        -0.0393
     40 HO2'        2.0953   -0.9375    0.0709 H         1 GTP         0.2010
     41 H1'        -0.1998   -1.6319    2.6178 H         1 GTP        -0.0393
     42 H8         -2.4545   -0.0604   -0.0844 H         1 GTP        -0.1369
     43 HN1        -3.6270   -6.1884    1.4651 H         1 GTP         0.0865
     44 HN21       -0.9445   -5.8354    3.6574 H         1 GTP         0.2048
     45 HN22       -2.1993   -6.8585    2.9930 H         1 GTP         0.2048
@<TRIPOS>BOND
     1    1    2 2
     2    1    3 1
     3    1    4 1
     4    1    5 1
     5    5    6 1
     6    6    7 2
     7    6    8 1
     8    6    9 1
     9    9   10 1
    10   10   11 2
    11   10   12 1
    12   10   13 1
    13   12   33 1
    14   13   14 1
    15   14   15 1
    16   14   34 1
    17   14   35 1
    18   15   16 1
    19   15   17 1
    20   15   36 1
    21   16   21 1
    22   17   18 1
    23   17   19 1
    24   17   37 1
    25   18   38 1
    26   19   20 1
    27   19   21 1
    28   19   39 1
    29   20   40 1
    30   21   22 1
    31   21   41 1
    32   22   23 ar
    33   22   32 ar
    34   23   24 ar
    35   23   42 1
    36   24   25 ar
    37   25   26 ar
    38   25   32 ar
    39   26   27 2
    40   26   28 ar
    41   28   29 ar
    42   28   43 1
    43   29   30 1
    44   29   31 ar
    45   30   44 1
    46   30   45 1
    47   31   32 ar
@<TRIPOS>SUBSTRUCTURE
     1 GTP         1 GROUP 0 A     ****
@<TRIPOS>MOLECULE
[[[5-(2-amino-6-oxo-1~{H}-purin-9-yl)-3,4-dihydroxy-tetrahydrofuran-2-yl]methoxy-hydroxy-phosphoryl]oxy-oxido-phosphoryl] phosphate
   45    47     1     0     0
SMALL
USER_CHARGES

@<TRIPOS>ATOM
      1 PG         -0.9639    6.7981   -1.1120 P.3       1 GTP        -1.1921
      2 O1G        -0.3589    6.1301    0.1181 O.co2     1 GTP         0.3195
      3 O2G         0.0102    6.9856   -2.2700 O.co2     1 GTP         0.3195
      4 O3G        -1.8065    8.0312   -0.8020 O.co2     1 GTP         0.3195
      5 O3B        -2.0625    5.7051   -1.6729 O.3       1 GTP         0.4672
      6 PB         -3.3819    5.0373   -0.9807 P.3       1 GTP        -1.1062
      7 O1B        -4.2807    6.1417   -0.4706 O.co2     1 GTP         0.3195
      8 O2B        -3.9147    3.9682   -1.9090 O.co2     1 GTP         0.3195
      9 O3A        -2.6701    4.3095    0.2947 O.3       1 GTP         0.4672
     10 PA         -3.3127    3.4213    1.4847 P.3       1 GTP        -0.9715
     11 O1A        -4.3354    4.1490    2.3084 O.2       1 GTP         0.2707
     12 O2A        -3.8613    2.0987    0.7316 O.3       1 GTP         0.0326
     13 O5'        -2.0394    2.8623    2.3117 O.3       1 GTP         0.1618
     14 C5'        -0.8811    2.4285    1.6206 C.3       1 GTP         0.1504
     15 C4'        -0.1994    1.3333    2.4288 C.3       1 GTP         0.1111
     16 O4'        -1.1285    0.2356    2.5840 O.3       1 GTP        -0.1436
     17 C3'         1.0324    0.7610    1.7344 C.3       1 GTP         0.1111
     18 O3'         1.9175    0.2377    2.7247 O.3       1 GTP        -0.2728
     19 C2'         0.4468   -0.3802    0.9263 C.3       1 GTP         0.1111
     20 O2'         1.3993   -1.3703    0.5961 O.3       1 GTP        -0.2728
     21 C1'        -0.6159   -0.9100    1.8769 C.3       1 GTP         0.0918
     22 N9         -1.7127   -1.6108    1.2130 N.pl3     1 GTP        -0.0449
     23 C8         -2.5489   -1.0812    0.2607 C.ar      1 GTP         0.4884
     24 N7         -3.4468   -1.9516   -0.1576 N.2       1 GTP        -0.5260
     25 C5         -3.1696   -3.0787    0.5579 C.ar      1 GTP         0.4178
     26 C6         -3.8307   -4.3536    0.5166 C.ar      1 GTP         0.2530
     27 O6         -4.7841   -4.6033   -0.2101 O.2       1 GTP        -0.2755
     28 N1         -3.2356   -5.2522    1.4132 N.pl3     1 GTP        -0.1604
     29 C2         -2.1338   -4.9602    2.2517 C.ar      1 GTP         0.4468
     30 N2         -1.7156   -5.9923    3.0507 N.pl3     1 GTP        -0.5618
     31 N3         -1.5477   -3.7827    2.2686 N.2       1 GTP        -0.4271
     32 C4         -2.1070   -2.9013    1.4104 C.ar      1 GTP         0.0498
     33 HOA2       -4.2293    1.3651    1.2688 H         1 GTP         0.2010
     34 H5'        -1.1757    2.0497    0.6364 H         1 GTP        -0.0393
     35 H5''       -0.2069    3.2809    1.4872 H         1 GTP        -0.0393
     36 H4'         0.0402    1.7079    3.4342 H         1 GTP        -0.0393
     37 H3'         1.5907    1.4859    1.1353 H         1 GTP        -0.0393
     38 HO3'        2.6839   -0.1150    2.2479 H         1 GTP         0.2010
     39 H2'        -0.0017    0.0018    0.0005 H         1 GTP        -0.0393
     40 HO2'        0.9369   -2.0558    0.0825 H         1 GTP         0.2010
     41 H1'        -0.1998   -1.6319    2.6178 H         1 GTP        -0.0393
     42 H8         -2.4545   -0.0604   -0.0844 H         1 GTP        -0.1369
     43 HN1        -3.6270   -6.1884    1.4651 H         1 GTP         0.0865
     44 HN21       -0.9445   -5.8354    3.6574 H         1 GTP         0.2048
     45 HN22       -2.1993   -6.8585    2.9930 H         1 GTP         0.2048
@<TRIPOS>BOND
     1    1    2 2
     2    1    3 1
     3    1    4 1
     4    1    5 1
     5    5    6 1
     6    6    7 2
     7    6    8 1
     8    6    9 1
     9    9   10 1
    10   10   11 2
    11   10   12 1
    12   10   13 1
    13   12   33 1
    14   13   14 1
    15   14   15 1
    16   14   34 1
    17   14   35 1
    18   15   16 1
    19   15   17 1
    20   15   36 1
    21   16   21 1
    22   17   18 1
    23   17   19 1
    24   17   37 1
    25   18   38 1
    26   19   20 1
    27   19   21 1
    28   19   39 1
    29   20   40 1
    30   21   22 1
    31   21   41 1
    32   22   23 ar
    33   22   32 ar
    34   23   24 ar
    35   23   42 1
    36   24   25 ar
    37   25   26 ar
    38   25   32 ar
    39   26   27 2
    40   26   28 ar
    41   28   29 ar
    42   28   43 1
    43   29   30 1
    44   29   31 ar
    45   30   44 1
    46   30   45 1
    47   31   32 ar
@<TRIPOS>SUBSTRUCTURE
     1 GTP         1 GROUP 0 A     ****
@<TRIPOS>MOLECULE
[[[5-(2-amino-6-oxo-1~{H}-purin-9-yl)-3,4-dihydroxy-tetrahydrofuran-2-yl]methoxy-hydroxy-phosphoryl]oxy-oxido-phosphoryl] phosphate
   45    47     1     0     0
SMALL
USER_CHARGES

@<TRIPOS>ATOM
      1 PG         -0.2129    7.4406   -3.4334 P.3       1 GTP        -1.1921
      2 O1G        -1.4735    8.2687   -3.2081 O.co2     1 GTP         0.3195
      3 O2G         1.0835    8.1551   -3.0680 O.co2     1 GTP         0.3195
      4 O3G        -0.1697    6.7226   -4.7785 O.co2     1 GTP         0.3195
      5 O3B        -0.3278    6.2138   -2.3391 O.3       1 GTP         0.4672
      6 PB         -1.4515    5.0483   -2.1269 P.3       1 GTP        -1.1062
      7 O1B        -2.7501    5.6915   -1.6937 O.co2     1 GTP         0.3195
      8 O2B        -1.4042    4.1208   -3.3212 O.co2     1 GTP         0.3195
      9 O3A        -0.7944    4.2793   -0.8464 O.3       1 GTP         0.4672
     10 PA         -0.4427    4.8271    0.6349 P.3       1 GTP        -0.9715
     11 O1A         0.5394    5.9624    0.6510 O.2       1 GTP         0.2707
     12 O2A        -1.8876    5.1681    1.2779 O.3       1 GTP         0.0326
     13 O5'         0.0166    3.5128    1.4591 O.3       1 GTP         0.1618
     14 C5'        -0.8811    2.4285    1.6206 C.3       1 GTP         0.1504
     15 C4'        -0.1994    1.3333    2.4288 C.3       1 GTP         0.1111
     16 O4'        -1.1285    0.2356    2.5840 O.3       1 GTP        -0.1436
     17 C3'         1.0324    0.7610    1.7344 C.3       1 GTP         0.1111
     18 O3'         1.9175    0.2377    2.7247 O.3       1 GTP        -0.2728
     19 C2'         0.4468   -0.3802    0.9263 C.3       1 GTP         0.1111
     20 O2'         1.3993   -1.3703    0.5961 O.3       1 GTP        -0.2728
     21 C1'        -0.6159   -0.9100    1.8769 C.3       1 GTP         0.0918
     22 N9         -1.7127   -1.6108    1.2130 N.pl3     1 GTP        -0.0449
     23 C8         -1.7695   -2.9586    0.9546 C.ar      1 GTP         0.4884
     24 N7         -2.8846   -3.3047    0.3416 N.2       1 GTP        -0.5260
     25 C5         -3.5626   -2.1296    0.2052 C.ar      1 GTP         0.4178
     26 C6         -4.8477   -1.8989   -0.3942 C.ar      1 GTP         0.2530
     27 O6         -5.5373   -2.7819   -0.8881 O.2       1 GTP        -0.2755
     28 N1         -5.1895   -0.5407   -0.3318 N.pl3     1 GTP        -0.1604
     29 C2         -4.3899    0.4774    0.2398 C.ar      1 GTP         0.4468
     30 N2         -4.9233    1.7390    0.1898 N.pl3     1 GTP        -0.5618
     31 N3         -3.2159    0.2368    0.7822 N.2       1 GTP        -0.4271
     32 C4         -2.8678   -1.0679    0.7322 C.ar      1 GTP         0.0498
     33 HOA2       -2.4241    5.8887    0.8841 H         1 GTP         0.2010
     34 H5'        -1.7777    2.7838    2.1390 H         1 GTP        -0.0393
     35 H5''       -1.1661    2.0530    0.6323 H         1 GTP        -0.0393
     36 H4'         0.0402    1.7079    3.4342 H         1 GTP        -0.0393
     37 H3'         1.5907    1.4859    1.1353 H         1 GTP        -0.0393
     38 HO3'        2.6839   -0.1150    2.2479 H         1 GTP         0.2010
     39 H2'        -0.0017    0.0018    0.0005 H         1 GTP        -0.0393
     40 HO2'        2.0953   -0.9375    0.0709 H         1 GTP         0.2010
     41 H1'        -0.1998   -1.6319    2.6178 H         1 GTP        -0.0393
     42 H8         -0.9713   -3.6323    1.2352 H         1 GTP        -0.1369
     43 HN1        -6.0831   -0.2651   -0.7290 H         1 GTP         0.0865
     44 HN21       -4.3985    2.4878    0.5788 H         1 GTP         0.2048
     45 HN22       -5.8145    1.8572   -0.2335 H         1 GTP         0.2048
@<TRIPOS>BOND
     1    1    2 2
     2    1    3 1
     3    1    4 1
     4    1    5 1
     5    5    6 1
     6    6    7 2
     7    6    8 1
     8    6    9 1
     9    9   10 1
    10   10   11 2
    11   10   12 1
    12   10   13 1
    13   12   33 1
    14   13   14 1
    15   14   15 1
    16   14   34 1
    17   14   35 1
    18   15   16 1
    19   15   17 1
    20   15   36 1
    21   16   21 1
    22   17   18 1
    23   17   19 1
    24   17   37 1
    25   18   38 1
    26   19   20 1
    27   19   21 1
    28   19   39 1
    29   20   40 1
    30   21   22 1
    31   21   41 1
    32   22   23 ar
    33   22   32 ar
    34   23   24 ar
    35   23   42 1
    36   24   25 ar
    37   25   26 ar
    38   25   32 ar
    39   26   27 2
    40   26   28 ar
    41   28   29 ar
    42   28   43 1
    43   29   30 1
    44   29   31 ar
    45   30   44 1
    46   30   45 1
    47   31   32 ar
@<TRIPOS>SUBSTRUCTURE
     1 GTP         1 GROUP 0 A     ****
@<TRIPOS>MOLECULE
[[[5-(2-amino-6-oxo-1~{H}-purin-9-yl)-3,4-dihydroxy-tetrahydrofuran-2-yl]methoxy-hydroxy-phosphoryl]oxy-oxido-phosphoryl] phosphate
   45    47     1     0     0
SMALL
USER_CHARGES

@<TRIPOS>ATOM
      1 PG          1.9157    0.2577   -3.0770 P.3       1 GTP        -1.1921
      2 O1G         3.0883   -0.0818   -2.1630 O.co2     1 GTP         0.3195
      3 O2G         0.8895   -0.8601   -3.2264 O.co2     1 GTP         0.3195
      4 O3G         2.3198    0.9114   -4.3946 O.co2     1 GTP         0.3195
      5 O3B         1.1077    1.4525   -2.2797 O.3       1 GTP         0.4672
      6 PB          1.5751    2.9358   -1.7822 P.3       1 GTP        -1.1062
      7 O1B         2.6220    2.7836   -0.7013 O.co2     1 GTP         0.3195
      8 O2B         1.8395    3.7850   -3.0060 O.co2     1 GTP         0.3195
      9 O3A         0.1812    3.4344   -1.0958 O.3       1 GTP         0.4672
     10 PA         -0.0721    4.4467    0.1409 P.3       1 GTP        -0.9715
     11 O1A         0.8341    5.6436    0.1482 O.2       1 GTP         0.2707
     12 O2A        -1.6506    4.7887    0.0480 O.3       1 GTP         0.0326
     13 O5'         0.0166    3.5128    1.4591 O.3       1 GTP         0.1618
     14 C5'        -0.8811    2.4285    1.6206 C.3       1 GTP         0.1504
     15 C4'        -0.1994    1.3333    2.4288 C.3       1 GTP         0.1111
     16 O4'        -1.1285    0.2356    2.5840 O.3       1 GTP        -0.1436
     17 C3'         1.0324    0.7610    1.7344 C.3       1 GTP         0.1111
     18 O3'         1.9175    0.2377    2.7247 O.3       1 GTP        -0.2728
     19 C2'         0.4468   -0.3802    0.9263 C.3       1 GTP         0.1111
     20 O2'         1.3993   -1.3703    0.5961 O.3       1 GTP        -0.2728
     21 C1'        -0.6159   -0.9100    1.8769 C.3       1 GTP         0.0918
     22 N9         -1.7127   -1.6108    1.2130 N.pl3     1 GTP        -0.0449
     23 C8         -1.7695   -2.9586    0.9546 C.ar      1 GTP         0.4884
     24 N7         -2.8846   -3.3047    0.3416 N.2       1 GTP        -0.5260
     25 C5         -3.5626   -2.1296    0.2052 C.ar      1 GTP         0.4178
     26 C6         -4.8477   -1.8989   -0.3942 C.ar      1 GTP         0.2530
     27 O6         -5.5373   -2.7819   -0.8881 O.2       1 GTP        -0.2755
     28 N1         -5.1895   -0.5407   -0.3318 N.pl3     1 GTP        -0.1604
     29 C2         -4.3899    0.4774    0.2398 C.ar      1 GTP         0.4468
     30 N2         -4.9233    1.7390    0.1898 N.pl3     1 GTP        -0.5618
     31 N3         -3.2159    0.2368    0.7822 N.2       1 GTP        -0.4271
     32 C4         -2.8678   -1.0679    0.7322 C.ar      1 GTP         0.0498
     33 HOA2       -2.0605    5.3328    0.7536 H         1 GTP         0.2010
     34 H5'        -1.7777    2.7838    2.1390 H         1 GTP        -0.0393
     35 H5''       -1.1661    2.0530    0.6323 H         1 GTP        -0.0393
     36 H4'         0.0402    1.7079    3.4342 H         1 GTP        -0.0393
     37 H3'         1.5907    1.4859    1.1353 H         1 GTP        -0.0393
     38 HO3'        2.1521    0.9800    3.3017 H         1 GTP         0.2010
     39 H2'        -0.0017    0.0018    0.0005 H         1 GTP        -0.0393
     40 HO2'        2.0953   -0.9375    0.0709 H         1 GTP         0.2010
     41 H1'        -0.1998   -1.6319    2.6178 H         1 GTP        -0.0393
     42 H8         -0.9713   -3.6323    1.2352 H         1 GTP        -0.1369
     43 HN1        -6.0831   -0.2651   -0.7290 H         1 GTP         0.0865
     44 HN21       -4.3985    2.4878    0.5788 H         1 GTP         0.2048
     45 HN22       -5.8145    1.8572   -0.2335 H         1 GTP         0.2048
@<TRIPOS>BOND
     1    1    2 2
     2    1    3 1
     3    1    4 1
     4    1    5 1
     5    5    6 1
     6    6    7 2
     7    6    8 1
     8    6    9 1
     9    9   10 1
    10   10   11 2
    11   10   12 1
    12   10   13 1
    13   12   33 1
    14   13   14 1
    15   14   15 1
    16   14   34 1
    17   14   35 1
    18   15   16 1
    19   15   17 1
    20   15   36 1
    21   16   21 1
    22   17   18 1
    23   17   19 1
    24   17   37 1
    25   18   38 1
    26   19   20 1
    27   19   21 1
    28   19   39 1
    29   20   40 1
    30   21   22 1
    31   21   41 1
    32   22   23 ar
    33   22   32 ar
    34   23   24 ar
    35   23   42 1
    36   24   25 ar
    37   25   26 ar
    38   25   32 ar
    39   26   27 2
    40   26   28 ar
    41   28   29 ar
    42   28   43 1
    43   29   30 1
    44   29   31 ar
    45   30   44 1
    46   30   45 1
    47   31   32 ar
@<TRIPOS>SUBSTRUCTURE
     1 GTP         1 GROUP 0 A     ****
@<TRIPOS>MOLECULE
[[[5-(2-amino-6-oxo-1~{H}-purin-9-yl)-3,4-dihydroxy-tetrahydrofuran-2-yl]methoxy-hydroxy-phosphoryl]oxy-oxido-phosphoryl] phosphate
   45    47     1     0     0
SMALL
USER_CHARGES

@<TRIPOS>ATOM
      1 PG         -1.2345    6.6363   -2.7708 P.3       1 GTP        -1.1921
      2 O1G         0.2206    6.8756   -2.3823 O.co2     1 GTP         0.3195
      3 O2G        -1.4199    5.8271   -4.0498 O.co2     1 GTP         0.3195
      4 O3G        -2.1155    7.8786   -2.6875 O.co2     1 GTP         0.3195
      5 O3B        -1.8212    5.6605   -1.5793 O.3       1 GTP         0.4672
      6 PB         -1.9437    5.8702    0.0353 P.3       1 GTP        -1.1062
      7 O1B        -0.5541    5.9299    0.6294 O.co2     1 GTP         0.3195
      8 O2B        -2.9481    6.9711    0.2958 O.co2     1 GTP         0.3195
      9 O3A        -2.6241    4.4418    0.4352 O.3       1 GTP         0.4672
     10 PA         -3.0699    3.8636    1.8791 P.3       1 GTP        -0.9715
     11 O1A        -3.7108    4.8828    2.7759 O.2       1 GTP         0.2707
     12 O2A        -4.0026    2.5917    1.5188 O.3       1 GTP         0.0326
     13 O5'        -1.7333    3.1724    2.4738 O.3       1 GTP         0.1618
     14 C5'        -0.8811    2.4285    1.6206 C.3       1 GTP         0.1504
     15 C4'        -0.1994    1.3333    2.4288 C.3       1 GTP         0.1111
     16 O4'        -1.1285    0.2356    2.5840 O.3       1 GTP        -0.1436
     17 C3'         1.0324    0.7610    1.7344 C.3       1 GTP         0.1111
     18 O3'         1.9175    0.2377    2.7247 O.3       1 GTP        -0.2728
     19 C2'         0.4468   -0.3802    0.9263 C.3       1 GTP         0.1111
     20 O2'         1.3993   -1.3703    0.5961 O.3       1 GTP        -0.2728
     21 C1'        -0.6159   -0.9100    1.8769 C.3       1 GTP         0.0918
     22 N9         -1.7127   -1.6108    1.2130 N.pl3     1 GTP        -0.0449
     23 C8         -2.8667   -1.0365    0.7385 C.ar      1 GTP         0.4884
     24 N7         -3.6757   -1.9196    0.1868 N.2       1 GTP        -0.5260
     25 C5         -3.0088   -3.1018    0.3164 C.ar      1 GTP         0.4178
     26 C6         -3.4148   -4.4130   -0.1079 C.ar      1 GTP         0.2530
     27 O6         -4.4753   -4.6480   -0.6732 O.2       1 GTP        -0.2755
     28 N1         -2.4377   -5.3653    0.2144 N.pl3     1 GTP        -0.1604
     29 C2         -1.2132   -5.0902    0.8680 C.ar      1 GTP         0.4468
     30 N2         -0.4066   -6.1772    1.0834 N.pl3     1 GTP        -0.5618
     31 N3         -0.8672   -3.8786    1.2457 N.2       1 GTP        -0.4271
     32 C4         -1.7966   -2.9451    0.9439 C.ar      1 GTP         0.0498
     33 HOA2       -4.3319    2.0233    2.2473 H         1 GTP         0.2010
     34 H5'        -1.4792    1.9919    0.8140 H         1 GTP        -0.0393
     35 H5''       -0.1359    3.1032    1.1865 H         1 GTP        -0.0393
     36 H4'         0.0402    1.7079    3.4342 H         1 GTP        -0.0393
     37 H3'         1.5907    1.4859    1.1353 H         1 GTP        -0.0393
     38 HO3'        2.6839   -0.1150    2.2479 H         1 GTP         0.2010
     39 H2'        -0.0017    0.0018    0.0005 H         1 GTP        -0.0393
     40 HO2'        0.9369   -2.0558    0.0825 H         1 GTP         0.2010
     41 H1'        -0.1998   -1.6319    2.6178 H         1 GTP        -0.0393
     42 H8         -3.0589    0.0244    0.8247 H         1 GTP        -0.1369
     43 HN1        -2.6238   -6.3307   -0.0420 H         1 GTP         0.0865
     44 HN21        0.4646   -6.0341    1.5394 H         1 GTP         0.2048
     45 HN22       -0.7235   -7.0673    0.7753 H         1 GTP         0.2048
@<TRIPOS>BOND
     1    1    2 2
     2    1    3 1
     3    1    4 1
     4    1    5 1
     5    5    6 1
     6    6    7 2
     7    6    8 1
     8    6    9 1
     9    9   10 1
    10   10   11 2
    11   10   12 1
    12   10   13 1
    13   12   33 1
    14   13   14 1
    15   14   15 1
    16   14   34 1
    17   14   35 1
    18   15   16 1
    19   15   17 1
    20   15   36 1
    21   16   21 1
    22   17   18 1
    23   17   19 1
    24   17   37 1
    25   18   38 1
    26   19   20 1
    27   19   21 1
    28   19   39 1
    29   20   40 1
    30   21   22 1
    31   21   41 1
    32   22   23 ar
    33   22   32 ar
    34   23   24 ar
    35   23   42 1
    36   24   25 ar
    37   25   26 ar
    38   25   32 ar
    39   26   27 2
    40   26   28 ar
    41   28   29 ar
    42   28   43 1
    43   29   30 1
    44   29   31 ar
    45   30   44 1
    46   30   45 1
    47   31   32 ar
@<TRIPOS>SUBSTRUCTURE
     1 GTP         1 GROUP 0 A     ****
@<TRIPOS>MOLECULE
[[[5-(2-amino-6-oxo-1~{H}-purin-9-yl)-3,4-dihydroxy-tetrahydrofuran-2-yl]methoxy-hydroxy-phosphoryl]oxy-oxido-phosphoryl] phosphate
   45    47     1     0     0
SMALL
USER_CHARGES

@<TRIPOS>ATOM
      1 PG         -4.8735    5.0537    0.1811 P.3       1 GTP        -1.1921
      2 O1G        -4.5821    4.7168    1.6396 O.co2     1 GTP         0.3195
      3 O2G        -6.0901    5.9490   -0.0274 O.co2     1 GTP         0.3195
      4 O3G        -4.8145    3.8551   -0.7604 O.co2     1 GTP         0.3195
      5 O3B        -3.5955    5.9824   -0.2879 O.3       1 GTP         0.4672
      6 PB         -1.9917    5.6797   -0.3361 P.3       1 GTP        -1.1062
      7 O1B        -1.7551    4.4111   -1.1249 O.co2     1 GTP         0.3195
      8 O2B        -1.2773    6.9636   -0.6966 O.co2     1 GTP         0.3195
      9 O3A        -1.7350    5.3694    1.2453 O.3       1 GTP         0.4672
     10 PA         -0.3734    4.9769    2.0265 P.3       1 GTP        -0.9715
     11 O1A         0.7121    6.0087    1.9217 O.2       1 GTP         0.2707
     12 O2A        -0.8666    4.6588    3.5341 O.3       1 GTP         0.0326
     13 O5'         0.0166    3.5128    1.4591 O.3       1 GTP         0.1618
     14 C5'        -0.8811    2.4285    1.6206 C.3       1 GTP         0.1504
     15 C4'        -0.1994    1.3333    2.4288 C.3       1 GTP         0.1111
     16 O4'        -1.1285    0.2356    2.5840 O.3       1 GTP        -0.1436
     17 C3'         1.0324    0.7610    1.7344 C.3       1 GTP         0.1111
     18 O3'         1.9175    0.2377    2.7247 O.3       1 GTP        -0.2728
     19 C2'         0.4468   -0.3802    0.9263 C.3       1 GTP         0.1111
     20 O2'         1.3993   -1.3703    0.5961 O.3       1 GTP        -0.2728
     21 C1'        -0.6159   -0.9100    1.8769 C.3       1 GTP         0.0918
     22 N9         -1.7127   -1.6108    1.2130 N.pl3     1 GTP        -0.0449
     23 C8         -2.8667   -1.0365    0.7385 C.ar      1 GTP         0.4884
     24 N7         -3.6757   -1.9196    0.1868 N.2       1 GTP        -0.5260
     25 C5         -3.0088   -3.1018    0.3164 C.ar      1 GTP         0.4178
     26 C6         -3.4148   -4.4130   -0.1079 C.ar      1 GTP         0.2530
     27 O6         -4.4753   -4.6480   -0.6732 O.2       1 GTP        -0.2755
     28 N1         -2.4377   -5.3653    0.2144 N.pl3     1 GTP        -0.1604
     29 C2         -1.2132   -5.0902    0.8680 C.ar      1 GTP         0.4468
     30 N2         -0.4066   -6.1772    1.0834 N.pl3     1 GTP        -0.5618
     31 N3         -0.8672   -3.8786    1.2457 N.2       1 GTP        -0.4271
     32 C4         -1.7966   -2.9451    0.9439 C.ar      1 GTP         0.0498
     33 HOA2       -0.2163    4.3168    4.1839 H         1 GTP         0.2010
     34 H5'        -1.7777    2.7838    2.1390 H         1 GTP        -0.0393
     35 H5''       -1.1661    2.0530    0.6323 H         1 GTP        -0.0393
     36 H4'         0.0402    1.7079    3.4342 H         1 GTP        -0.0393
     37 H3'         1.5907    1.4859    1.1353 H         1 GTP        -0.0393
     38 HO3'        2.6839   -0.1150    2.2479 H         1 GTP         0.2010
     39 H2'        -0.0017    0.0018    0.0005 H         1 GTP        -0.0393
     40 HO2'        2.0953   -0.9375    0.0709 H         1 GTP         0.2010
     41 H1'        -0.1998   -1.6319    2.6178 H         1 GTP        -0.0393
     42 H8         -3.0589    0.0244    0.8247 H         1 GTP        -0.1369
     43 HN1        -2.6238   -6.3307   -0.0420 H         1 GTP         0.0865
     44 HN21        0.4646   -6.0341    1.5394 H         1 GTP         0.2048
     45 HN22       -0.7235   -7.0673    0.7753 H         1 GTP         0.2048
@<TRIPOS>BOND
     1    1    2 2
     2    1    3 1
     3    1    4 1
     4    1    5 1
     5    5    6 1
     6    6    7 2
     7    6    8 1
     8    6    9 1
     9    9   10 1
    10   10   11 2
    11   10   12 1
    12   10   13 1
    13   12   33 1
    14   13   14 1
    15   14   15 1
    16   14   34 1
    17   14   35 1
    18   15   16 1
    19   15   17 1
    20   15   36 1
    21   16   21 1
    22   17   18 1
    23   17   19 1
    24   17   37 1
    25   18   38 1
    26   19   20 1
    27   19   21 1
    28   19   39 1
    29   20   40 1
    30   21   22 1
    31   21   41 1
    32   22   23 ar
    33   22   32 ar
    34   23   24 ar
    35   23   42 1
    36   24   25 ar
    37   25   26 ar
    38   25   32 ar
    39   26   27 2
    40   26   28 ar
    41   28   29 ar
    42   28   43 1
    43   29   30 1
    44   29   31 ar
    45   30   44 1
    46   30   45 1
    47   31   32 ar
@<TRIPOS>SUBSTRUCTURE
     1 GTP         1 GROUP 0 A     ****
@<TRIPOS>MOLECULE
[[[5-(2-amino-6-oxo-1~{H}-purin-9-yl)-3,4-dihydroxy-tetrahydrofuran-2-yl]methoxy-hydroxy-phosphoryl]oxy-oxido-phosphoryl] phosphate
   45    47     1     0     0
SMALL
USER_CHARGES

@<TRIPOS>ATOM
      1 PG         -3.4348    2.6984   -2.8491 P.3       1 GTP        -1.1921
      2 O1G        -2.1798    2.1092   -2.2140 O.co2     1 GTP         0.3195
      3 O2G        -4.5576    1.6920   -3.0763 O.co2     1 GTP         0.3195
      4 O3G        -3.1625    3.6068   -4.0438 O.co2     1 GTP         0.3195
      5 O3B        -4.0293    3.7250   -1.7051 O.3       1 GTP         0.4672
      6 PB         -3.3819    5.0373   -0.9807 P.3       1 GTP        -1.1062
      7 O1B        -2.3061    5.6113   -1.8755 O.co2     1 GTP         0.3195
      8 O2B        -4.5125    5.9036   -0.4708 O.co2     1 GTP         0.3195
      9 O3A        -2.6701    4.3095    0.2947 O.3       1 GTP         0.4672
     10 PA         -3.3127    3.4213    1.4847 P.3       1 GTP        -0.9715
     11 O1A        -4.3354    4.1490    2.3084 O.2       1 GTP         0.2707
     12 O2A        -3.8613    2.0987    0.7316 O.3       1 GTP         0.0326
     13 O5'        -2.0394    2.8623    2.3117 O.3       1 GTP         0.1618
     14 C5'        -0.8811    2.4285    1.6206 C.3       1 GTP         0.1504
     15 C4'        -0.1994    1.3333    2.4288 C.3       1 GTP         0.1111
     16 O4'        -1.1285    0.2356    2.5840 O.3       1 GTP        -0.1436
     17 C3'         1.0324    0.7610    1.7344 C.3       1 GTP         0.1111
     18 O3'         1.9175    0.2377    2.7247 O.3       1 GTP        -0.2728
     19 C2'         0.4468   -0.3802    0.9263 C.3       1 GTP         0.1111
     20 O2'         1.3993   -1.3703    0.5961 O.3       1 GTP        -0.2728
     21 C1'        -0.6159   -0.9100    1.8769 C.3       1 GTP         0.0918
     22 N9         -1.7127   -1.6108    1.2130 N.pl3     1 GTP        -0.0449
     23 C8         -2.5489   -1.0812    0.2607 C.ar      1 GTP         0.4884
     24 N7         -3.4468   -1.9516   -0.1576 N.2       1 GTP        -0.5260
     25 C5         -3.1696   -3.0787    0.5579 C.ar      1 GTP         0.4178
     26 C6         -3.8307   -4.3536    0.5166 C.ar      1 GTP         0.2530
     27 O6         -4.7841   -4.6033   -0.2101 O.2       1 GTP        -0.2755
     28 N1         -3.2356   -5.2522    1.4132 N.pl3     1 GTP        -0.1604
     29 C2         -2.1338   -4.9602    2.2517 C.ar      1 GTP         0.4468
     30 N2         -1.7156   -5.9923    3.0507 N.pl3     1 GTP        -0.5618
     31 N3         -1.5477   -3.7827    2.2686 N.2       1 GTP        -0.4271
     32 C4         -2.1070   -2.9013    1.4104 C.ar      1 GTP         0.0498
     33 HOA2       -4.5947    2.1897    0.0867 H         1 GTP         0.2010
     34 H5'        -1.1757    2.0497    0.6364 H         1 GTP        -0.0393
     35 H5''       -0.2069    3.2809    1.4872 H         1 GTP        -0.0393
     36 H4'         0.0402    1.7079    3.4342 H         1 GTP        -0.0393
     37 H3'         1.5907    1.4859    1.1353 H         1 GTP        -0.0393
     38 HO3'        2.6839   -0.1150    2.2479 H         1 GTP         0.2010
     39 H2'        -0.0017    0.0018    0.0005 H         1 GTP        -0.0393
     40 HO2'        2.0953   -0.9375    0.0709 H         1 GTP         0.2010
     41 H1'        -0.1998   -1.6319    2.6178 H         1 GTP        -0.0393
     42 H8         -2.4545   -0.0604   -0.0844 H         1 GTP        -0.1369
     43 HN1        -3.6270   -6.1884    1.4651 H         1 GTP         0.0865
     44 HN21       -0.9445   -5.8354    3.6574 H         1 GTP         0.2048
     45 HN22       -2.1993   -6.8585    2.9930 H         1 GTP         0.2048
@<TRIPOS>BOND
     1    1    2 2
     2    1    3 1
     3    1    4 1
     4    1    5 1
     5    5    6 1
     6    6    7 2
     7    6    8 1
     8    6    9 1
     9    9   10 1
    10   10   11 2
    11   10   12 1
    12   10   13 1
    13   12   33 1
    14   13   14 1
    15   14   15 1
    16   14   34 1
    17   14   35 1
    18   15   16 1
    19   15   17 1
    20   15   36 1
    21   16   21 1
    22   17   18 1
    23   17   19 1
    24   17   37 1
    25   18   38 1
    26   19   20 1
    27   19   21 1
    28   19   39 1
    29   20   40 1
    30   21   22 1
    31   21   41 1
    32   22   23 ar
    33   22   32 ar
    34   23   24 ar
    35   23   42 1
    36   24   25 ar
    37   25   26 ar
    38   25   32 ar
    39   26   27 2
    40   26   28 ar
    41   28   29 ar
    42   28   43 1
    43   29   30 1
    44   29   31 ar
    45   30   44 1
    46   30   45 1
    47   31   32 ar
@<TRIPOS>SUBSTRUCTURE
     1 GTP         1 GROUP 0 A     ****
@<TRIPOS>MOLECULE
[[[5-(2-amino-6-oxo-1~{H}-purin-9-yl)-3,4-dihydroxy-tetrahydrofuran-2-yl]methoxy-hydroxy-phosphoryl]oxy-oxido-phosphoryl] phosphate
   45    47     1     0     0
SMALL
USER_CHARGES

@<TRIPOS>ATOM
      1 PG         -4.4952    6.7918   -1.1405 P.3       1 GTP        -1.1921
      2 O1G        -5.4043    5.9702   -2.0483 O.co2     1 GTP         0.3195
      3 O2G        -5.0977    7.1240    0.2202 O.co2     1 GTP         0.3195
      4 O3G        -3.8286    7.9769   -1.8318 O.co2     1 GTP         0.3195
      5 O3B        -3.2386    5.7823   -0.7974 O.3       1 GTP         0.4672
      6 PB         -2.1515    5.0343   -1.7591 P.3       1 GTP        -1.1062
      7 O1B        -2.8712    4.0131   -2.6117 O.co2     1 GTP         0.3195
      8 O2B        -1.2701    6.0901   -2.3893 O.co2     1 GTP         0.3195
      9 O3A        -1.2872    4.2498   -0.6187 O.3       1 GTP         0.4672
     10 PA         -0.4427    4.8271    0.6349 P.3       1 GTP        -0.9715
     11 O1A         0.6716    5.7555    0.2474 O.2       1 GTP         0.2707
     12 O2A        -1.5686    5.4793    1.5964 O.3       1 GTP         0.0326
     13 O5'         0.0166    3.5128    1.4591 O.3       1 GTP         0.1618
     14 C5'        -0.8811    2.4285    1.6206 C.3       1 GTP         0.1504
     15 C4'        -0.1994    1.3333    2.4288 C.3       1 GTP         0.1111
     16 O4'        -1.1285    0.2356    2.5840 O.3       1 GTP        -0.1436
     17 C3'         1.0324    0.7610    1.7344 C.3       1 GTP         0.1111
     18 O3'         1.9175    0.2377    2.7247 O.3       1 GTP        -0.2728
     19 C2'         0.4468   -0.3802    0.9263 C.3       1 GTP         0.1111
     20 O2'         1.3993   -1.3703    0.5961 O.3       1 GTP        -0.2728
     21 C1'        -0.6159   -0.9100    1.8769 C.3       1 GTP         0.0918
     22 N9         -1.7127   -1.6108    1.2130 N.pl3     1 GTP        -0.0449
     23 C8         -2.8667   -1.0365    0.7385 C.ar      1 GTP         0.4884
     24 N7         -3.6757   -1.9196    0.1868 N.2       1 GTP        -0.5260
     25 C5         -3.0088   -3.1018    0.3164 C.ar      1 GTP         0.4178
     26 C6         -3.4148   -4.4130   -0.1079 C.ar      1 GTP         0.2530
     27 O6         -4.4753   -4.6480   -0.6732 O.2       1 GTP        -0.2755
     28 N1         -2.4377   -5.3653    0.2144 N.pl3     1 GTP        -0.1604
     29 C2         -1.2132   -5.0902    0.8680 C.ar      1 GTP         0.4468
     30 N2         -0.4066   -6.1772    1.0834 N.pl3     1 GTP        -0.5618
     31 N3         -0.8672   -3.8786    1.2457 N.2       1 GTP        -0.4271
     32 C4         -1.7966   -2.9451    0.9439 C.ar      1 GTP         0.0498
     33 HOA2       -1.2997    5.8291    2.4724 H         1 GTP         0.2010
     34 H5'        -1.7777    2.7838    2.1390 H         1 GTP        -0.0393
     35 H5''       -1.1661    2.0530    0.6323 H         1 GTP        -0.0393
     36 H4'         0.0402    1.7079    3.4342 H         1 GTP        -0.0393
     37 H3'         1.5907    1.4859    1.1353 H         1 GTP        -0.0393
     38 HO3'        2.6839   -0.1150    2.2479 H         1 GTP         0.2010
     39 H2'        -0.0017    0.0018    0.0005 H         1 GTP        -0.0393
     40 HO2'        0.9369   -2.0558    0.0825 H         1 GTP         0.2010
     41 H1'        -0.1998   -1.6319    2.6178 H         1 GTP        -0.0393
     42 H8         -3.0589    0.0244    0.8247 H         1 GTP        -0.1369
     43 HN1        -2.6238   -6.3307   -0.0420 H         1 GTP         0.0865
     44 HN21        0.4646   -6.0341    1.5394 H         1 GTP         0.2048
     45 HN22       -0.7235   -7.0673    0.7753 H         1 GTP         0.2048
@<TRIPOS>BOND
     1    1    2 2
     2    1    3 1
     3    1    4 1
     4    1    5 1
     5    5    6 1
     6    6    7 2
     7    6    8 1
     8    6    9 1
     9    9   10 1
    10   10   11 2
    11   10   12 1
    12   10   13 1
    13   12   33 1
    14   13   14 1
    15   14   15 1
    16   14   34 1
    17   14   35 1
    18   15   16 1
    19   15   17 1
    20   15   36 1
    21   16   21 1
    22   17   18 1
    23   17   19 1
    24   17   37 1
    25   18   38 1
    26   19   20 1
    27   19   21 1
    28   19   39 1
    29   20   40 1
    30   21   22 1
    31   21   41 1
    32   22   23 ar
    33   22   32 ar
    34   23   24 ar
    35   23   42 1
    36   24   25 ar
    37   25   26 ar
    38   25   32 ar
    39   26   27 2
    40   26   28 ar
    41   28   29 ar
    42   28   43 1
    43   29   30 1
    44   29   31 ar
    45   30   44 1
    46   30   45 1
    47   31   32 ar
@<TRIPOS>SUBSTRUCTURE
     1 GTP         1 GROUP 0 A     ****
@<TRIPOS>MOLECULE
[[[5-(2-amino-6-oxo-1~{H}-purin-9-yl)-3,4-dihydroxy-tetrahydrofuran-2-yl]methoxy-hydroxy-phosphoryl]oxy-oxido-phosphoryl] phosphate
   45    47     1     0     0
SMALL
USER_CHARGES

@<TRIPOS>ATOM
      1 PG          0.5215    8.4252    2.9135 P.3       1 GTP        -1.1921
      2 O1G         1.8901    8.3997    3.5858 O.co2     1 GTP         0.3195
      3 O2G         0.5662    8.6167    1.4015 O.co2     1 GTP         0.3195
      4 O3G        -0.5058    9.3025    3.6216 O.co2     1 GTP         0.3195
      5 O3B        -0.0629    6.8977    3.1164 O.3       1 GTP         0.4672
      6 PB         -0.3741    6.0226    4.4593 P.3       1 GTP        -1.1062
      7 O1B         0.9303    5.7259    5.1651 O.co2     1 GTP         0.3195
      8 O2B        -1.5245    6.6746    5.1943 O.co2     1 GTP         0.3195
      9 O3A        -0.9157    4.6512    3.7600 O.3       1 GTP         0.4672
     10 PA         -2.1747    4.4070    2.7734 P.3       1 GTP        -0.9715
     11 O1A        -3.5015    4.7779    3.3701 O.2       1 GTP         0.2707
     12 O2A        -1.7813    5.2194    1.4308 O.3       1 GTP         0.0326
     13 O5'        -2.0394    2.8623    2.3117 O.3       1 GTP         0.1618
     14 C5'        -0.8811    2.4285    1.6206 C.3       1 GTP         0.1504
     15 C4'        -0.1994    1.3333    2.4288 C.3       1 GTP         0.1111
     16 O4'        -1.1285    0.2356    2.5840 O.3       1 GTP        -0.1436
     17 C3'         1.0324    0.7610    1.7344 C.3       1 GTP         0.1111
     18 O3'         1.9175    0.2377    2.7247 O.3       1 GTP        -0.2728
     19 C2'         0.4468   -0.3802    0.9263 C.3       1 GTP         0.1111
     20 O2'         1.3993   -1.3703    0.5961 O.3       1 GTP        -0.2728
     21 C1'        -0.6159   -0.9100    1.8769 C.3       1 GTP         0.0918
     22 N9         -1.7127   -1.6108    1.2130 N.pl3     1 GTP        -0.0449
     23 C8         -2.8667   -1.0365    0.7385 C.ar      1 GTP         0.4884
     24 N7         -3.6757   -1.9196    0.1868 N.2       1 GTP        -0.5260
     25 C5         -3.0088   -3.1018    0.3164 C.ar      1 GTP         0.4178
     26 C6         -3.4148   -4.4130   -0.1079 C.ar      1 GTP         0.2530
     27 O6         -4.4753   -4.6480   -0.6732 O.2       1 GTP        -0.2755
     28 N1         -2.4377   -5.3653    0.2144 N.pl3     1 GTP        -0.1604
     29 C2         -1.2132   -5.0902    0.8680 C.ar      1 GTP         0.4468
     30 N2         -0.4066   -6.1772    1.0834 N.pl3     1 GTP        -0.5618
     31 N3         -0.8672   -3.8786    1.2457 N.2       1 GTP        -0.4271
     32 C4         -1.7966   -2.9451    0.9439 C.ar      1 GTP         0.0498
     33 HOA2       -1.7042    6.1964    1.4728 H         1 GTP         0.2010
     34 H5'        -1.1757    2.0497    0.6364 H         1 GTP        -0.0393
     35 H5''       -0.2069    3.2809    1.4872 H         1 GTP        -0.0393
     36 H4'         0.0402    1.7079    3.4342 H         1 GTP        -0.0393
     37 H3'         1.5907    1.4859    1.1353 H         1 GTP        -0.0393
     38 HO3'        2.6839   -0.1150    2.2479 H         1 GTP         0.2010
     39 H2'        -0.0017    0.0018    0.0005 H         1 GTP        -0.0393
     40 HO2'        2.0953   -0.9375    0.0709 H         1 GTP         0.2010
     41 H1'        -0.1998   -1.6319    2.6178 H         1 GTP        -0.0393
     42 H8         -3.0589    0.0244    0.8247 H         1 GTP        -0.1369
     43 HN1        -2.6238   -6.3307   -0.0420 H         1 GTP         0.0865
     44 HN21        0.4646   -6.0341    1.5394 H         1 GTP         0.2048
     45 HN22       -0.7235   -7.0673    0.7753 H         1 GTP         0.2048
@<TRIPOS>BOND
     1    1    2 2
     2    1    3 1
     3    1    4 1
     4    1    5 1
     5    5    6 1
     6    6    7 2
     7    6    8 1
     8    6    9 1
     9    9   10 1
    10   10   11 2
    11   10   12 1
    12   10   13 1
    13   12   33 1
    14   13   14 1
    15   14   15 1
    16   14   34 1
    17   14   35 1
    18   15   16 1
    19   15   17 1
    20   15   36 1
    21   16   21 1
    22   17   18 1
    23   17   19 1
    24   17   37 1
    25   18   38 1
    26   19   20 1
    27   19   21 1
    28   19   39 1
    29   20   40 1
    30   21   22 1
    31   21   41 1
    32   22   23 ar
    33   22   32 ar
    34   23   24 ar
    35   23   42 1
    36   24   25 ar
    37   25   26 ar
    38   25   32 ar
    39   26   27 2
    40   26   28 ar
    41   28   29 ar
    42   28   43 1
    43   29   30 1
    44   29   31 ar
    45   30   44 1
    46   30   45 1
    47   31   32 ar
@<TRIPOS>SUBSTRUCTURE
     1 GTP         1 GROUP 0 A     ****
@<TRIPOS>MOLECULE
[[[5-(2-amino-6-oxo-1~{H}-purin-9-yl)-3,4-dihydroxy-tetrahydrofuran-2-yl]methoxy-hydroxy-phosphoryl]oxy-oxido-phosphoryl] phosphate
   45    47     1     0     0
SMALL
USER_CHARGES

@<TRIPOS>ATOM
      1 PG         -2.3630    6.1018   -3.3333 P.3       1 GTP        -1.1921
      2 O1G        -2.9176    7.5030   -3.0999 O.co2     1 GTP         0.3195
      3 O2G        -0.9105    6.0684   -3.7959 O.co2     1 GTP         0.3195
      4 O3G        -3.2901    5.1876   -4.1279 O.co2     1 GTP         0.3195
      5 O3B        -2.3318    5.4187   -1.8338 O.3       1 GTP         0.4672
      6 PB         -3.5157    5.1256   -0.7482 P.3       1 GTP        -1.1062
      7 O1B        -4.0592    6.4449   -0.2465 O.co2     1 GTP         0.3195
      8 O2B        -4.4379    4.0739   -1.3245 O.co2     1 GTP         0.3195
      9 O3A        -2.6241    4.4418    0.4352 O.3       1 GTP         0.4672
     10 PA         -3.0699    3.8636    1.8791 P.3       1 GTP        -0.9715
     11 O1A        -3.7108    4.8828    2.7759 O.2       1 GTP         0.2707
     12 O2A        -4.0026    2.5917    1.5188 O.3       1 GTP         0.0326
     13 O5'        -1.7333    3.1724    2.4738 O.3       1 GTP         0.1618
     14 C5'        -0.8811    2.4285    1.6206 C.3       1 GTP         0.1504
     15 C4'        -0.1994    1.3333    2.4288 C.3       1 GTP         0.1111
     16 O4'        -1.1285    0.2356    2.5840 O.3       1 GTP        -0.1436
     17 C3'         1.0324    0.7610    1.7344 C.3       1 GTP         0.1111
     18 O3'         1.9175    0.2377    2.7247 O.3       1 GTP        -0.2728
     19 C2'         0.4468   -0.3802    0.9263 C.3       1 GTP         0.1111
     20 O2'         1.3993   -1.3703    0.5961 O.3       1 GTP        -0.2728
     21 C1'        -0.6159   -0.9100    1.8769 C.3       1 GTP         0.0918
     22 N9         -1.7127   -1.6108    1.2130 N.pl3     1 GTP        -0.0449
     23 C8         -2.5489   -1.0812    0.2607 C.ar      1 GTP         0.4884
     24 N7         -3.4468   -1.9516   -0.1576 N.2       1 GTP        -0.5260
     25 C5         -3.1696   -3.0787    0.5579 C.ar      1 GTP         0.4178
     26 C6         -3.8307   -4.3536    0.5166 C.ar      1 GTP         0.2530
     27 O6         -4.7841   -4.6033   -0.2101 O.2       1 GTP        -0.2755
     28 N1         -3.2356   -5.2522    1.4132 N.pl3     1 GTP        -0.1604
     29 C2         -2.1338   -4.9602    2.2517 C.ar      1 GTP         0.4468
     30 N2         -1.7156   -5.9923    3.0507 N.pl3     1 GTP        -0.5618
     31 N3         -1.5477   -3.7827    2.2686 N.2       1 GTP        -0.4271
     32 C4         -2.1070   -2.9013    1.4104 C.ar      1 GTP         0.0498
     33 HOA2       -4.3319    2.0233    2.2473 H         1 GTP         0.2010
     34 H5'        -1.4792    1.9919    0.8140 H         1 GTP        -0.0393
     35 H5''       -0.1359    3.1032    1.1865 H         1 GTP        -0.0393
     36 H4'         0.0402    1.7079    3.4342 H         1 GTP        -0.0393
     37 H3'         1.5907    1.4859    1.1353 H         1 GTP        -0.0393
     38 HO3'        2.6839   -0.1150    2.2479 H         1 GTP         0.2010
     39 H2'        -0.0017    0.0018    0.0005 H         1 GTP        -0.0393
     40 HO2'        2.0953   -0.9375    0.0709 H         1 GTP         0.2010
     41 H1'        -0.1998   -1.6319    2.6178 H         1 GTP        -0.0393
     42 H8         -2.4545   -0.0604   -0.0844 H         1 GTP        -0.1369
     43 HN1        -3.6270   -6.1884    1.4651 H         1 GTP         0.0865
     44 HN21       -0.9445   -5.8354    3.6574 H         1 GTP         0.2048
     45 HN22       -2.1993   -6.8585    2.9930 H         1 GTP         0.2048
@<TRIPOS>BOND
     1    1    2 2
     2    1    3 1
     3    1    4 1
     4    1    5 1
     5    5    6 1
     6    6    7 2
     7    6    8 1
     8    6    9 1
     9    9   10 1
    10   10   11 2
    11   10   12 1
    12   10   13 1
    13   12   33 1
    14   13   14 1
    15   14   15 1
    16   14   34 1
    17   14   35 1
    18   15   16 1
    19   15   17 1
    20   15   36 1
    21   16   21 1
    22   17   18 1
    23   17   19 1
    24   17   37 1
    25   18   38 1
    26   19   20 1
    27   19   21 1
    28   19   39 1
    29   20   40 1
    30   21   22 1
    31   21   41 1
    32   22   23 ar
    33   22   32 ar
    34   23   24 ar
    35   23   42 1
    36   24   25 ar
    37   25   26 ar
    38   25   32 ar
    39   26   27 2
    40   26   28 ar
    41   28   29 ar
    42   28   43 1
    43   29   30 1
    44   29   31 ar
    45   30   44 1
    46   30   45 1
    47   31   32 ar
@<TRIPOS>SUBSTRUCTURE
     1 GTP         1 GROUP 0 A     ****
@<TRIPOS>MOLECULE
[[[5-(2-amino-6-oxo-1~{H}-purin-9-yl)-3,4-dihydroxy-tetrahydrofuran-2-yl]methoxy-hydroxy-phosphoryl]oxy-oxido-phosphoryl] phosphate
   45    47     1     0     0
SMALL
USER_CHARGES

@<TRIPOS>ATOM
      1 PG         -5.3329    5.3934   -1.7882 P.3       1 GTP        -1.1921
      2 O1G        -4.9338    6.4993   -2.7595 O.co2     1 GTP         0.3195
      3 O2G        -5.7050    4.0736   -2.4551 O.co2     1 GTP         0.3195
      4 O3G        -6.3071    5.8380   -0.7021 O.co2     1 GTP         0.3195
      5 O3B        -3.9491    5.0580   -0.9585 O.3       1 GTP         0.4672
      6 PB         -2.9924    5.9896   -0.0188 P.3       1 GTP        -1.1062
      7 O1B        -2.3396    7.0480   -0.8797 O.co2     1 GTP         0.3195
      8 O2B        -3.7707    6.3684    1.2220 O.co2     1 GTP         0.3195
      9 O3A        -1.8678    4.8810    0.3924 O.3       1 GTP         0.4672
     10 PA         -0.5530    5.0212    1.3251 P.3       1 GTP        -0.9715
     11 O1A         0.4406    6.0342    0.8349 O.2       1 GTP         0.2707
     12 O2A        -1.1505    5.3124    2.8001 O.3       1 GTP         0.0326
     13 O5'         0.0166    3.5128    1.4591 O.3       1 GTP         0.1618
     14 C5'        -0.8811    2.4285    1.6206 C.3       1 GTP         0.1504
     15 C4'        -0.1994    1.3333    2.4288 C.3       1 GTP         0.1111
     16 O4'        -1.1285    0.2356    2.5840 O.3       1 GTP        -0.1436
     17 C3'         1.0324    0.7610    1.7344 C.3       1 GTP         0.1111
     18 O3'         1.9175    0.2377    2.7247 O.3       1 GTP        -0.2728
     19 C2'         0.4468   -0.3802    0.9263 C.3       1 GTP         0.1111
     20 O2'         1.3993   -1.3703    0.5961 O.3       1 GTP        -0.2728
     21 C1'        -0.6159   -0.9100    1.8769 C.3       1 GTP         0.0918
     22 N9         -1.7127   -1.6108    1.2130 N.pl3     1 GTP        -0.0449
     23 C8         -2.8667   -1.0365    0.7385 C.ar      1 GTP         0.4884
     24 N7         -3.6757   -1.9196    0.1868 N.2       1 GTP        -0.5260
     25 C5         -3.0088   -3.1018    0.3164 C.ar      1 GTP         0.4178
     26 C6         -3.4148   -4.4130   -0.1079 C.ar      1 GTP         0.2530
     27 O6         -4.4753   -4.6480   -0.6732 O.2       1 GTP        -0.2755
     28 N1         -2.4377   -5.3653    0.2144 N.pl3     1 GTP        -0.1604
     29 C2         -1.2132   -5.0902    0.8680 C.ar      1 GTP         0.4468
     30 N2         -0.4066   -6.1772    1.0834 N.pl3     1 GTP        -0.5618
     31 N3         -0.8672   -3.8786    1.2457 N.2       1 GTP        -0.4271
     32 C4         -1.7966   -2.9451    0.9439 C.ar      1 GTP         0.0498
     33 HOA2       -1.6384    6.1486    2.9578 H         1 GTP         0.2010
     34 H5'        -1.7777    2.7838    2.1390 H         1 GTP        -0.0393
     35 H5''       -1.1661    2.0530    0.6323 H         1 GTP        -0.0393
     36 H4'         0.0402    1.7079    3.4342 H         1 GTP        -0.0393
     37 H3'         1.5907    1.4859    1.1353 H         1 GTP        -0.0393
     38 HO3'        2.6839   -0.1150    2.2479 H         1 GTP         0.2010
     39 H2'        -0.0017    0.0018    0.0005 H         1 GTP        -0.0393
     40 HO2'        2.0953   -0.9375    0.0709 H         1 GTP         0.2010
     41 H1'        -0.1998   -1.6319    2.6178 H         1 GTP        -0.0393
     42 H8         -3.0589    0.0244    0.8247 H         1 GTP        -0.1369
     43 HN1        -2.6238   -6.3307   -0.0420 H         1 GTP         0.0865
     44 HN21        0.4646   -6.0341    1.5394 H         1 GTP         0.2048
     45 HN22       -0.7235   -7.0673    0.7753 H         1 GTP         0.2048
@<TRIPOS>BOND
     1    1    2 2
     2    1    3 1
     3    1    4 1
     4    1    5 1
     5    5    6 1
     6    6    7 2
     7    6    8 1
     8    6    9 1
     9    9   10 1
    10   10   11 2
    11   10   12 1
    12   10   13 1
    13   12   33 1
    14   13   14 1
    15   14   15 1
    16   14   34 1
    17   14   35 1
    18   15   16 1
    19   15   17 1
    20   15   36 1
    21   16   21 1
    22   17   18 1
    23   17   19 1
    24   17   37 1
    25   18   38 1
    26   19   20 1
    27   19   21 1
    28   19   39 1
    29   20   40 1
    30   21   22 1
    31   21   41 1
    32   22   23 ar
    33   22   32 ar
    34   23   24 ar
    35   23   42 1
    36   24   25 ar
    37   25   26 ar
    38   25   32 ar
    39   26   27 2
    40   26   28 ar
    41   28   29 ar
    42   28   43 1
    43   29   30 1
    44   29   31 ar
    45   30   44 1
    46   30   45 1
    47   31   32 ar
@<TRIPOS>SUBSTRUCTURE
     1 GTP         1 GROUP 0 A     ****
@<TRIPOS>MOLECULE
[[[5-(2-amino-6-oxo-1~{H}-purin-9-yl)-3,4-dihydroxy-tetrahydrofuran-2-yl]methoxy-hydroxy-phosphoryl]oxy-oxido-phosphoryl] phosphate
   45    47     1     0     0
SMALL
USER_CHARGES

@<TRIPOS>ATOM
      1 PG          2.4723    4.4585    5.4786 P.3       1 GTP        -1.1921
      2 O1G         1.5540    3.2705    5.2122 O.co2     1 GTP         0.3195
      3 O2G         3.9594    4.1228    5.4545 O.co2     1 GTP         0.3195
      4 O3G         2.0486    5.3221    6.6623 O.co2     1 GTP         0.3195
      5 O3B         2.2534    5.4452    4.1769 O.3       1 GTP         0.4672
      6 PB          0.9235    6.1855    3.5857 P.3       1 GTP        -1.1062
      7 O1B         0.2761    6.9885    4.6918 O.co2     1 GTP         0.3195
      8 O2B         1.2871    6.8315    2.2669 O.co2     1 GTP         0.3195
      9 O3A         0.0035    4.8719    3.2838 O.3       1 GTP         0.4672
     10 PA         -1.4913    4.7595    2.6747 P.3       1 GTP        -0.9715
     11 O1A        -2.5386    5.4639    3.4876 O.2       1 GTP         0.2707
     12 O2A        -1.3348    5.2945    1.1559 O.3       1 GTP         0.0326
     13 O5'        -1.7333    3.1724    2.4738 O.3       1 GTP         0.1618
     14 C5'        -0.8811    2.4285    1.6206 C.3       1 GTP         0.1504
     15 C4'        -0.1994    1.3333    2.4288 C.3       1 GTP         0.1111
     16 O4'        -1.1285    0.2356    2.5840 O.3       1 GTP        -0.1436
     17 C3'         1.0324    0.7610    1.7344 C.3       1 GTP         0.1111
     18 O3'         1.9175    0.2377    2.7247 O.3       1 GTP        -0.2728
     19 C2'         0.4468   -0.3802    0.9263 C.3       1 GTP         0.1111
     20 O2'         1.3993   -1.3703    0.5961 O.3       1 GTP        -0.2728
     21 C1'        -0.6159   -0.9100    1.8769 C.3       1 GTP         0.0918
     22 N9         -1.7127   -1.6108    1.2130 N.pl3     1 GTP        -0.0449
     23 C8         -2.8667   -1.0365    0.7385 C.ar      1 GTP         0.4884
     24 N7         -3.6757   -1.9196    0.1868 N.2       1 GTP        -0.5260
     25 C5         -3.0088   -3.1018    0.3164 C.ar      1 GTP         0.4178
     26 C6         -3.4148   -4.4130   -0.1079 C.ar      1 GTP         0.2530
     27 O6         -4.4753   -4.6480   -0.6732 O.2       1 GTP        -0.2755
     28 N1         -2.4377   -5.3653    0.2144 N.pl3     1 GTP        -0.1604
     29 C2         -1.2132   -5.0902    0.8680 C.ar      1 GTP         0.4468
     30 N2         -0.4066   -6.1772    1.0834 N.pl3     1 GTP        -0.5618
     31 N3         -0.8672   -3.8786    1.2457 N.2       1 GTP        -0.4271
     32 C4         -1.7966   -2.9451    0.9439 C.ar      1 GTP         0.0498
     33 HOA2       -1.0920    6.2330    1.0061 H         1 GTP         0.2010
     34 H5'        -1.4792    1.9919    0.8140 H         1 GTP        -0.0393
     35 H5''       -0.1359    3.1032    1.1865 H         1 GTP        -0.0393
     36 H4'         0.0402    1.7079    3.4342 H         1 GTP        -0.0393
     37 H3'         1.5907    1.4859    1.1353 H         1 GTP        -0.0393
     38 HO3'        2.1521    0.9800    3.3017 H         1 GTP         0.2010
     39 H2'        -0.0017    0.0018    0.0005 H         1 GTP        -0.0393
     40 HO2'        0.9369   -2.0558    0.0825 H         1 GTP         0.2010
     41 H1'        -0.1998   -1.6319    2.6178 H         1 GTP        -0.0393
     42 H8         -3.0589    0.0244    0.8247 H         1 GTP        -0.1369
     43 HN1        -2.6238   -6.3307   -0.0420 H         1 GTP         0.0865
     44 HN21        0.4646   -6.0341    1.5394 H         1 GTP         0.2048
     45 HN22       -0.7235   -7.0673    0.7753 H         1 GTP         0.2048
@<TRIPOS>BOND
     1    1    2 2
     2    1    3 1
     3    1    4 1
     4    1    5 1
     5    5    6 1
     6    6    7 2
     7    6    8 1
     8    6    9 1
     9    9   10 1
    10   10   11 2
    11   10   12 1
    12   10   13 1
    13   12   33 1
    14   13   14 1
    15   14   15 1
    16   14   34 1
    17   14   35 1
    18   15   16 1
    19   15   17 1
    20   15   36 1
    21   16   21 1
    22   17   18 1
    23   17   19 1
    24   17   37 1
    25   18   38 1
    26   19   20 1
    27   19   21 1
    28   19   39 1
    29   20   40 1
    30   21   22 1
    31   21   41 1
    32   22   23 ar
    33   22   32 ar
    34   23   24 ar
    35   23   42 1
    36   24   25 ar
    37   25   26 ar
    38   25   32 ar
    39   26   27 2
    40   26   28 ar
    41   28   29 ar
    42   28   43 1
    43   29   30 1
    44   29   31 ar
    45   30   44 1
    46   30   45 1
    47   31   32 ar
@<TRIPOS>SUBSTRUCTURE
     1 GTP         1 GROUP 0 A     ****
@<TRIPOS>MOLECULE
[[[5-(2-amino-6-oxo-1~{H}-purin-9-yl)-3,4-dihydroxy-tetrahydrofuran-2-yl]methoxy-hydroxy-phosphoryl]oxy-oxido-phosphoryl] phosphate
   45    47     1     0     0
SMALL
USER_CHARGES

@<TRIPOS>ATOM
      1 PG         -0.2506    9.0229    1.0919 P.3       1 GTP        -1.1921
      2 O1G        -0.9185    9.8236    2.2047 O.co2     1 GTP         0.3195
      3 O2G         1.2619    8.8901    1.2323 O.co2     1 GTP         0.3195
      4 O3G        -0.7145    9.3978   -0.3120 O.co2     1 GTP         0.3195
      5 O3B        -0.8177    7.4888    1.2942 O.3       1 GTP         0.4672
      6 PB         -2.3319    6.8783    1.2733 P.3       1 GTP        -1.1062
      7 O1B        -3.0983    7.4258    2.4567 O.co2     1 GTP         0.3195
      8 O2B        -2.8762    7.0079   -0.1323 O.co2     1 GTP         0.3195
      9 O3A        -1.9864    5.3082    1.5532 O.3       1 GTP         0.4672
     10 PA         -2.9678    4.0282    1.6820 P.3       1 GTP        -0.9715
     11 O1A        -4.2384    4.3035    2.4327 O.2       1 GTP         0.2707
     12 O2A        -3.1728    3.5385    0.1537 O.3       1 GTP         0.0326
     13 O5'        -2.0394    2.8623    2.3117 O.3       1 GTP         0.1618
     14 C5'        -0.8811    2.4285    1.6206 C.3       1 GTP         0.1504
     15 C4'        -0.1994    1.3333    2.4288 C.3       1 GTP         0.1111
     16 O4'        -1.1285    0.2356    2.5840 O.3       1 GTP        -0.1436
     17 C3'         1.0324    0.7610    1.7344 C.3       1 GTP         0.1111
     18 O3'         1.9175    0.2377    2.7247 O.3       1 GTP        -0.2728
     19 C2'         0.4468   -0.3802    0.9263 C.3       1 GTP         0.1111
     20 O2'         1.3993   -1.3703    0.5961 O.3       1 GTP        -0.2728
     21 C1'        -0.6159   -0.9100    1.8769 C.3       1 GTP         0.0918
     22 N9         -1.7127   -1.6108    1.2130 N.pl3     1 GTP        -0.0449
     23 C8         -2.5489   -1.0812    0.2607 C.ar      1 GTP         0.4884
     24 N7         -3.4468   -1.9516   -0.1576 N.2       1 GTP        -0.5260
     25 C5         -3.1696   -3.0787    0.5579 C.ar      1 GTP         0.4178
     26 C6         -3.8307   -4.3536    0.5166 C.ar      1 GTP         0.2530
     27 O6         -4.7841   -4.6033   -0.2101 O.2       1 GTP        -0.2755
     28 N1         -3.2356   -5.2522    1.4132 N.pl3     1 GTP        -0.1604
     29 C2         -2.1338   -4.9602    2.2517 C.ar      1 GTP         0.4468
     30 N2         -1.7156   -5.9923    3.0507 N.pl3     1 GTP        -0.5618
     31 N3         -1.5477   -3.7827    2.2686 N.2       1 GTP        -0.4271
     32 C4         -2.1070   -2.9013    1.4104 C.ar      1 GTP         0.0498
     33 HOA2       -3.6406    4.1286   -0.4749 H         1 GTP         0.2010
     34 H5'        -1.1757    2.0497    0.6364 H         1 GTP        -0.0393
     35 H5''       -0.2069    3.2809    1.4872 H         1 GTP        -0.0393
     36 H4'         0.0402    1.7079    3.4342 H         1 GTP        -0.0393
     37 H3'         1.5907    1.4859    1.1353 H         1 GTP        -0.0393
     38 HO3'        2.6839   -0.1150    2.2479 H         1 GTP         0.2010
     39 H2'        -0.0017    0.0018    0.0005 H         1 GTP        -0.0393
     40 HO2'        0.9369   -2.0558    0.0825 H         1 GTP         0.2010
     41 H1'        -0.1998   -1.6319    2.6178 H         1 GTP        -0.0393
     42 H8         -2.4545   -0.0604   -0.0844 H         1 GTP        -0.1369
     43 HN1        -3.6270   -6.1884    1.4651 H         1 GTP         0.0865
     44 HN21       -0.9445   -5.8354    3.6574 H         1 GTP         0.2048
     45 HN22       -2.1993   -6.8585    2.9930 H         1 GTP         0.2048
@<TRIPOS>BOND
     1    1    2 2
     2    1    3 1
     3    1    4 1
     4    1    5 1
     5    5    6 1
     6    6    7 2
     7    6    8 1
     8    6    9 1
     9    9   10 1
    10   10   11 2
    11   10   12 1
    12   10   13 1
    13   12   33 1
    14   13   14 1
    15   14   15 1
    16   14   34 1
    17   14   35 1
    18   15   16 1
    19   15   17 1
    20   15   36 1
    21   16   21 1
    22   17   18 1
    23   17   19 1
    24   17   37 1
    25   18   38 1
    26   19   20 1
    27   19   21 1
    28   19   39 1
    29   20   40 1
    30   21   22 1
    31   21   41 1
    32   22   23 ar
    33   22   32 ar
    34   23   24 ar
    35   23   42 1
    36   24   25 ar
    37   25   26 ar
    38   25   32 ar
    39   26   27 2
    40   26   28 ar
    41   28   29 ar
    42   28   43 1
    43   29   30 1
    44   29   31 ar
    45   30   44 1
    46   30   45 1
    47   31   32 ar
@<TRIPOS>SUBSTRUCTURE
     1 GTP         1 GROUP 0 A     ****
@<TRIPOS>MOLECULE
[[[5-(2-amino-6-oxo-1~{H}-purin-9-yl)-3,4-dihydroxy-tetrahydrofuran-2-yl]methoxy-hydroxy-phosphoryl]oxy-oxido-phosphoryl] phosphate
   45    47     1     0     0
SMALL
USER_CHARGES

@<TRIPOS>ATOM
      1 PG         -2.9527    8.8273    4.0444 P.3       1 GTP        -1.1921
      2 O1G        -3.2172    9.5742    2.7414 O.co2     1 GTP         0.3195
      3 O2G        -4.2042    8.5198    4.8593 O.co2     1 GTP         0.3195
      4 O3G        -1.7992    9.3940    4.8659 O.co2     1 GTP         0.3195
      5 O3B        -2.4020    7.3499    3.5650 O.3       1 GTP         0.4672
      6 PB         -1.1108    6.9100    2.6676 P.3       1 GTP        -1.1062
      7 O1B        -1.3031    7.4096    1.2530 O.co2     1 GTP         0.3195
      8 O2B         0.1431    7.2430    3.4456 O.co2     1 GTP         0.3195
      9 O3A        -1.3176    5.2914    2.6847 O.3       1 GTP         0.4672
     10 PA         -2.5512    4.3890    2.1537 P.3       1 GTP        -0.9715
     11 O1A        -3.8625    4.6915    2.8192 O.2       1 GTP         0.2707
     12 O2A        -2.5345    4.6098    0.5511 O.3       1 GTP         0.0326
     13 O5'        -2.0394    2.8623    2.3117 O.3       1 GTP         0.1618
     14 C5'        -0.8811    2.4285    1.6206 C.3       1 GTP         0.1504
     15 C4'        -0.1994    1.3333    2.4288 C.3       1 GTP         0.1111
     16 O4'        -1.1285    0.2356    2.5840 O.3       1 GTP        -0.1436
     17 C3'         1.0324    0.7610    1.7344 C.3       1 GTP         0.1111
     18 O3'         1.9175    0.2377    2.7247 O.3       1 GTP        -0.2728
     19 C2'         0.4468   -0.3802    0.9263 C.3       1 GTP         0.1111
     20 O2'         1.3993   -1.3703    0.5961 O.3       1 GTP        -0.2728
     21 C1'        -0.6159   -0.9100    1.8769 C.3       1 GTP         0.0918
     22 N9         -1.7127   -1.6108    1.2130 N.pl3     1 GTP        -0.0449
     23 C8         -2.5489   -1.0812    0.2607 C.ar      1 GTP         0.4884
     24 N7         -3.4468   -1.9516   -0.1576 N.2       1 GTP        -0.5260
     25 C5         -3.1696   -3.0787    0.5579 C.ar      1 GTP         0.4178
     26 C6         -3.8307   -4.3536    0.5166 C.ar      1 GTP         0.2530
     27 O6         -4.7841   -4.6033   -0.2101 O.2       1 GTP        -0.2755
     28 N1         -3.2356   -5.2522    1.4132 N.pl3     1 GTP        -0.1604
     29 C2         -2.1338   -4.9602    2.2517 C.ar      1 GTP         0.4468
     30 N2         -1.7156   -5.9923    3.0507 N.pl3     1 GTP        -0.5618
     31 N3         -1.5477   -3.7827    2.2686 N.2       1 GTP        -0.4271
     32 C4         -2.1070   -2.9013    1.4104 C.ar      1 GTP         0.0498
     33 HOA2       -2.7276    5.5023    0.1931 H         1 GTP         0.2010
     34 H5'        -1.1757    2.0497    0.6364 H         1 GTP        -0.0393
     35 H5''       -0.2069    3.2809    1.4872 H         1 GTP        -0.0393
     36 H4'         0.0402    1.7079    3.4342 H         1 GTP        -0.0393
     37 H3'         1.5907    1.4859    1.1353 H         1 GTP        -0.0393
     38 HO3'        2.1521    0.9800    3.3017 H         1 GTP         0.2010
     39 H2'        -0.0017    0.0018    0.0005 H         1 GTP        -0.0393
     40 HO2'        0.9369   -2.0558    0.0825 H         1 GTP         0.2010
     41 H1'        -0.1998   -1.6319    2.6178 H         1 GTP        -0.0393
     42 H8         -2.4545   -0.0604   -0.0844 H         1 GTP        -0.1369
     43 HN1        -3.6270   -6.1884    1.4651 H         1 GTP         0.0865
     44 HN21       -0.9445   -5.8354    3.6574 H         1 GTP         0.2048
     45 HN22       -2.1993   -6.8585    2.9930 H         1 GTP         0.2048
@<TRIPOS>BOND
     1    1    2 2
     2    1    3 1
     3    1    4 1
     4    1    5 1
     5    5    6 1
     6    6    7 2
     7    6    8 1
     8    6    9 1
     9    9   10 1
    10   10   11 2
    11   10   12 1
    12   10   13 1
    13   12   33 1
    14   13   14 1
    15   14   15 1
    16   14   34 1
    17   14   35 1
    18   15   16 1
    19   15   17 1
    20   15   36 1
    21   16   21 1
    22   17   18 1
    23   17   19 1
    24   17   37 1
    25   18   38 1
    26   19   20 1
    27   19   21 1
    28   19   39 1
    29   20   40 1
    30   21   22 1
    31   21   41 1
    32   22   23 ar
    33   22   32 ar
    34   23   24 ar
    35   23   42 1
    36   24   25 ar
    37   25   26 ar
    38   25   32 ar
    39   26   27 2
    40   26   28 ar
    41   28   29 ar
    42   28   43 1
    43   29   30 1
    44   29   31 ar
    45   30   44 1
    46   30   45 1
    47   31   32 ar
@<TRIPOS>SUBSTRUCTURE
     1 GTP         1 GROUP 0 A     ****
@<TRIPOS>MOLECULE
[[[5-(2-amino-6-oxo-1~{H}-purin-9-yl)-3,4-dihydroxy-tetrahydrofuran-2-yl]methoxy-hydroxy-phosphoryl]oxy-oxido-phosphoryl] phosphate
   45    47     1     0     0
SMALL
USER_CHARGES

@<TRIPOS>ATOM
      1 PG          1.7368    4.9569    6.9058 P.3       1 GTP        -1.1921
      2 O1G         1.8111    3.5151    7.3970 O.co2     1 GTP         0.3195
      3 O2G         3.0593    5.5165    6.3934 O.co2     1 GTP         0.3195
      4 O3G         0.9842    5.8973    7.8416 O.co2     1 GTP         0.3195
      5 O3B         0.7762    4.8849    5.5687 O.3       1 GTP         0.4672
      6 PB         -0.7661    4.3893    5.3638 P.3       1 GTP        -1.1062
      7 O1B        -0.8419    2.9010    5.6224 O.co2     1 GTP         0.3195
      8 O2B        -1.6749    5.3524    6.0954 O.co2     1 GTP         0.3195
      9 O3A        -0.9157    4.6512    3.7600 O.3       1 GTP         0.4672
     10 PA         -2.1747    4.4070    2.7734 P.3       1 GTP        -0.9715
     11 O1A        -3.5015    4.7779    3.3701 O.2       1 GTP         0.2707
     12 O2A        -1.7813    5.2194    1.4308 O.3       1 GTP         0.0326
     13 O5'        -2.0394    2.8623    2.3117 O.3       1 GTP         0.1618
     14 C5'        -0.8811    2.4285    1.6206 C.3       1 GTP         0.1504
     15 C4'        -0.1994    1.3333    2.4288 C.3       1 GTP         0.1111
     16 O4'        -1.1285    0.2356    2.5840 O.3       1 GTP        -0.1436
     17 C3'         1.0324    0.7610    1.7344 C.3       1 GTP         0.1111
     18 O3'         1.9175    0.2377    2.7247 O.3       1 GTP        -0.2728
     19 C2'         0.4468   -0.3802    0.9263 C.3       1 GTP         0.1111
     20 O2'         1.3993   -1.3703    0.5961 O.3       1 GTP        -0.2728
     21 C1'        -0.6159   -0.9100    1.8769 C.3       1 GTP         0.0918
     22 N9         -1.7127   -1.6108    1.2130 N.pl3     1 GTP        -0.0449
     23 C8         -1.7695   -2.9586    0.9546 C.ar      1 GTP         0.4884
     24 N7         -2.8846   -3.3047    0.3416 N.2       1 GTP        -0.5260
     25 C5         -3.5626   -2.1296    0.2052 C.ar      1 GTP         0.4178
     26 C6         -4.8477   -1.8989   -0.3942 C.ar      1 GTP         0.2530
     27 O6         -5.5373   -2.7819   -0.8881 O.2       1 GTP        -0.2755
     28 N1         -5.1895   -0.5407   -0.3318 N.pl3     1 GTP        -0.1604
     29 C2         -4.3899    0.4774    0.2398 C.ar      1 GTP         0.4468
     30 N2         -4.9233    1.7390    0.1898 N.pl3     1 GTP        -0.5618
     31 N3         -3.2159    0.2368    0.7822 N.2       1 GTP        -0.4271
     32 C4         -2.8678   -1.0679    0.7322 C.ar      1 GTP         0.0498
     33 HOA2       -2.3673    5.1527    0.6470 H         1 GTP         0.2010
     34 H5'        -1.1757    2.0497    0.6364 H         1 GTP        -0.0393
     35 H5''       -0.2069    3.2809    1.4872 H         1 GTP        -0.0393
     36 H4'         0.0402    1.7079    3.4342 H         1 GTP        -0.0393
     37 H3'         1.5907    1.4859    1.1353 H         1 GTP        -0.0393
     38 HO3'        2.6839   -0.1150    2.2479 H         1 GTP         0.2010
     39 H2'        -0.0017    0.0018    0.0005 H         1 GTP        -0.0393
     40 HO2'        2.0953   -0.9375    0.0709 H         1 GTP         0.2010
     41 H1'        -0.1998   -1.6319    2.6178 H         1 GTP        -0.0393
     42 H8         -0.9713   -3.6323    1.2352 H         1 GTP        -0.1369
     43 HN1        -6.0831   -0.2651   -0.7290 H         1 GTP         0.0865
     44 HN21       -4.3985    2.4878    0.5788 H         1 GTP         0.2048
     45 HN22       -5.8145    1.8572   -0.2335 H         1 GTP         0.2048
@<TRIPOS>BOND
     1    1    2 2
     2    1    3 1
     3    1    4 1
     4    1    5 1
     5    5    6 1
     6    6    7 2
     7    6    8 1
     8    6    9 1
     9    9   10 1
    10   10   11 2
    11   10   12 1
    12   10   13 1
    13   12   33 1
    14   13   14 1
    15   14   15 1
    16   14   34 1
    17   14   35 1
    18   15   16 1
    19   15   17 1
    20   15   36 1
    21   16   21 1
    22   17   18 1
    23   17   19 1
    24   17   37 1
    25   18   38 1
    26   19   20 1
    27   19   21 1
    28   19   39 1
    29   20   40 1
    30   21   22 1
    31   21   41 1
    32   22   23 ar
    33   22   32 ar
    34   23   24 ar
    35   23   42 1
    36   24   25 ar
    37   25   26 ar
    38   25   32 ar
    39   26   27 2
    40   26   28 ar
    41   28   29 ar
    42   28   43 1
    43   29   30 1
    44   29   31 ar
    45   30   44 1
    46   30   45 1
    47   31   32 ar
@<TRIPOS>SUBSTRUCTURE
     1 GTP         1 GROUP 0 A     ****
@<TRIPOS>MOLECULE
[[[5-(2-amino-6-oxo-1~{H}-purin-9-yl)-3,4-dihydroxy-tetrahydrofuran-2-yl]methoxy-hydroxy-phosphoryl]oxy-oxido-phosphoryl] phosphate
   45    47     1     0     0
SMALL
USER_CHARGES

@<TRIPOS>ATOM
      1 PG         -0.3468    3.8888   -4.9295 P.3       1 GTP        -1.1921
      2 O1G        -0.3384    2.3736   -5.1025 O.co2     1 GTP         0.3195
      3 O2G        -1.5018    4.5961   -5.6300 O.co2     1 GTP         0.3195
      4 O3G         1.0107    4.5496   -5.1464 O.co2     1 GTP         0.3195
      5 O3B        -0.6400    4.1160   -3.3238 O.3       1 GTP         0.4672
      6 PB          0.1754    3.6390   -1.9920 P.3       1 GTP        -1.1062
      7 O1B         0.1145    2.1310   -1.8930 O.co2     1 GTP         0.3195
      8 O2B         1.5013    4.3668   -1.9616 O.co2     1 GTP         0.3195
      9 O3A        -0.7944    4.2793   -0.8464 O.3       1 GTP         0.4672
     10 PA         -0.4427    4.8271    0.6349 P.3       1 GTP        -0.9715
     11 O1A         0.5394    5.9624    0.6510 O.2       1 GTP         0.2707
     12 O2A        -1.8876    5.1681    1.2779 O.3       1 GTP         0.0326
     13 O5'         0.0166    3.5128    1.4591 O.3       1 GTP         0.1618
     14 C5'        -0.8811    2.4285    1.6206 C.3       1 GTP         0.1504
     15 C4'        -0.1994    1.3333    2.4288 C.3       1 GTP         0.1111
     16 O4'        -1.1285    0.2356    2.5840 O.3       1 GTP        -0.1436
     17 C3'         1.0324    0.7610    1.7344 C.3       1 GTP         0.1111
     18 O3'         1.9175    0.2377    2.7247 O.3       1 GTP        -0.2728
     19 C2'         0.4468   -0.3802    0.9263 C.3       1 GTP         0.1111
     20 O2'         1.3993   -1.3703    0.5961 O.3       1 GTP        -0.2728
     21 C1'        -0.6159   -0.9100    1.8769 C.3       1 GTP         0.0918
     22 N9         -1.7127   -1.6108    1.2130 N.pl3     1 GTP        -0.0449
     23 C8         -1.7695   -2.9586    0.9546 C.ar      1 GTP         0.4884
     24 N7         -2.8846   -3.3047    0.3416 N.2       1 GTP        -0.5260
     25 C5         -3.5626   -2.1296    0.2052 C.ar      1 GTP         0.4178
     26 C6         -4.8477   -1.8989   -0.3942 C.ar      1 GTP         0.2530
     27 O6         -5.5373   -2.7819   -0.8881 O.2       1 GTP        -0.2755
     28 N1         -5.1895   -0.5407   -0.3318 N.pl3     1 GTP        -0.1604
     29 C2         -4.3899    0.4774    0.2398 C.ar      1 GTP         0.4468
     30 N2         -4.9233    1.7390    0.1898 N.pl3     1 GTP        -0.5618
     31 N3         -3.2159    0.2368    0.7822 N.2       1 GTP        -0.4271
     32 C4         -2.8678   -1.0679    0.7322 C.ar      1 GTP         0.0498
     33 HOA2       -1.9352    5.4469    2.2171 H         1 GTP         0.2010
     34 H5'        -1.7777    2.7838    2.1390 H         1 GTP        -0.0393
     35 H5''       -1.1661    2.0530    0.6323 H         1 GTP        -0.0393
     36 H4'         0.0402    1.7079    3.4342 H         1 GTP        -0.0393
     37 H3'         1.5907    1.4859    1.1353 H         1 GTP        -0.0393
     38 HO3'        2.1521    0.9800    3.3017 H         1 GTP         0.2010
     39 H2'        -0.0017    0.0018    0.0005 H         1 GTP        -0.0393
     40 HO2'        0.9369   -2.0558    0.0825 H         1 GTP         0.2010
     41 H1'        -0.1998   -1.6319    2.6178 H         1 GTP        -0.0393
     42 H8         -0.9713   -3.6323    1.2352 H         1 GTP        -0.1369
     43 HN1        -6.0831   -0.2651   -0.7290 H         1 GTP         0.0865
     44 HN21       -4.3985    2.4878    0.5788 H         1 GTP         0.2048
     45 HN22       -5.8145    1.8572   -0.2335 H         1 GTP         0.2048
@<TRIPOS>BOND
     1    1    2 2
     2    1    3 1
     3    1    4 1
     4    1    5 1
     5    5    6 1
     6    6    7 2
     7    6    8 1
     8    6    9 1
     9    9   10 1
    10   10   11 2
    11   10   12 1
    12   10   13 1
    13   12   33 1
    14   13   14 1
    15   14   15 1
    16   14   34 1
    17   14   35 1
    18   15   16 1
    19   15   17 1
    20   15   36 1
    21   16   21 1
    22   17   18 1
    23   17   19 1
    24   17   37 1
    25   18   38 1
    26   19   20 1
    27   19   21 1
    28   19   39 1
    29   20   40 1
    30   21   22 1
    31   21   41 1
    32   22   23 ar
    33   22   32 ar
    34   23   24 ar
    35   23   42 1
    36   24   25 ar
    37   25   26 ar
    38   25   32 ar
    39   26   27 2
    40   26   28 ar
    41   28   29 ar
    42   28   43 1
    43   29   30 1
    44   29   31 ar
    45   30   44 1
    46   30   45 1
    47   31   32 ar
@<TRIPOS>SUBSTRUCTURE
     1 GTP         1 GROUP 0 A     ****
@<TRIPOS>MOLECULE
[[[5-(2-amino-6-oxo-1~{H}-purin-9-yl)-3,4-dihydroxy-tetrahydrofuran-2-yl]methoxy-hydroxy-phosphoryl]oxy-oxido-phosphoryl] phosphate
   45    47     1     0     0
SMALL
USER_CHARGES

@<TRIPOS>ATOM
      1 PG         -2.9790    7.9427    3.8217 P.3       1 GTP        -1.1921
      2 O1G        -3.2596    7.4893    2.3930 O.co2     1 GTP         0.3195
      3 O2G        -4.2280    8.2218    4.6506 O.co2     1 GTP         0.3195
      4 O3G        -1.9037    9.0185    3.9356 O.co2     1 GTP         0.3195
      5 O3B        -2.2942    6.6279    4.5416 O.3       1 GTP         0.4672
      6 PB         -0.9422    5.7804    4.1956 P.3       1 GTP        -1.1062
      7 O1B         0.2293    6.7342    4.1207 O.co2     1 GTP         0.3195
      8 O2B        -0.8995    4.5665    5.0974 O.co2     1 GTP         0.3195
      9 O3A        -1.3176    5.2914    2.6847 O.3       1 GTP         0.4672
     10 PA         -2.5512    4.3890    2.1537 P.3       1 GTP        -0.9715
     11 O1A        -3.8625    4.6915    2.8192 O.2       1 GTP         0.2707
     12 O2A        -2.5345    4.6098    0.5511 O.3       1 GTP         0.0326
     13 O5'        -2.0394    2.8623    2.3117 O.3       1 GTP         0.1618
     14 C5'        -0.8811    2.4285    1.6206 C.3       1 GTP         0.1504
     15 C4'        -0.1994    1.3333    2.4288 C.3       1 GTP         0.1111
     16 O4'        -1.1285    0.2356    2.5840 O.3       1 GTP        -0.1436
     17 C3'         1.0324    0.7610    1.7344 C.3       1 GTP         0.1111
     18 O3'         1.9175    0.2377    2.7247 O.3       1 GTP        -0.2728
     19 C2'         0.4468   -0.3802    0.9263 C.3       1 GTP         0.1111
     20 O2'         1.3993   -1.3703    0.5961 O.3       1 GTP        -0.2728
     21 C1'        -0.6159   -0.9100    1.8769 C.3       1 GTP         0.0918
     22 N9         -1.7127   -1.6108    1.2130 N.pl3     1 GTP        -0.0449
     23 C8         -2.8667   -1.0365    0.7385 C.ar      1 GTP         0.4884
     24 N7         -3.6757   -1.9196    0.1868 N.2       1 GTP        -0.5260
     25 C5         -3.0088   -3.1018    0.3164 C.ar      1 GTP         0.4178
     26 C6         -3.4148   -4.4130   -0.1079 C.ar      1 GTP         0.2530
     27 O6         -4.4753   -4.6480   -0.6732 O.2       1 GTP        -0.2755
     28 N1         -2.4377   -5.3653    0.2144 N.pl3     1 GTP        -0.1604
     29 C2         -1.2132   -5.0902    0.8680 C.ar      1 GTP         0.4468
     30 N2         -0.4066   -6.1772    1.0834 N.pl3     1 GTP        -0.5618
     31 N3         -0.8672   -3.8786    1.2457 N.2       1 GTP        -0.4271
     32 C4         -1.7966   -2.9451    0.9439 C.ar      1 GTP         0.0498
     33 HOA2       -2.7276    5.5023    0.1931 H         1 GTP         0.2010
     34 H5'        -1.1757    2.0497    0.6364 H         1 GTP        -0.0393
     35 H5''       -0.2069    3.2809    1.4872 H         1 GTP        -0.0393
     36 H4'         0.0402    1.7079    3.4342 H         1 GTP        -0.0393
     37 H3'         1.5907    1.4859    1.1353 H         1 GTP        -0.0393
     38 HO3'        2.6839   -0.1150    2.2479 H         1 GTP         0.2010
     39 H2'        -0.0017    0.0018    0.0005 H         1 GTP        -0.0393
     40 HO2'        2.0953   -0.9375    0.0709 H         1 GTP         0.2010
     41 H1'        -0.1998   -1.6319    2.6178 H         1 GTP        -0.0393
     42 H8         -3.0589    0.0244    0.8247 H         1 GTP        -0.1369
     43 HN1        -2.6238   -6.3307   -0.0420 H         1 GTP         0.0865
     44 HN21        0.4646   -6.0341    1.5394 H         1 GTP         0.2048
     45 HN22       -0.7235   -7.0673    0.7753 H         1 GTP         0.2048
@<TRIPOS>BOND
     1    1    2 2
     2    1    3 1
     3    1    4 1
     4    1    5 1
     5    5    6 1
     6    6    7 2
     7    6    8 1
     8    6    9 1
     9    9   10 1
    10   10   11 2
    11   10   12 1
    12   10   13 1
    13   12   33 1
    14   13   14 1
    15   14   15 1
    16   14   34 1
    17   14   35 1
    18   15   16 1
    19   15   17 1
    20   15   36 1
    21   16   21 1
    22   17   18 1
    23   17   19 1
    24   17   37 1
    25   18   38 1
    26   19   20 1
    27   19   21 1
    28   19   39 1
    29   20   40 1
    30   21   22 1
    31   21   41 1
    32   22   23 ar
    33   22   32 ar
    34   23   24 ar
    35   23   42 1
    36   24   25 ar
    37   25   26 ar
    38   25   32 ar
    39   26   27 2
    40   26   28 ar
    41   28   29 ar
    42   28   43 1
    43   29   30 1
    44   29   31 ar
    45   30   44 1
    46   30   45 1
    47   31   32 ar
@<TRIPOS>SUBSTRUCTURE
     1 GTP         1 GROUP 0 A     ****
@<TRIPOS>MOLECULE
[[[5-(2-amino-6-oxo-1~{H}-purin-9-yl)-3,4-dihydroxy-tetrahydrofuran-2-yl]methoxy-hydroxy-phosphoryl]oxy-oxido-phosphoryl] phosphate
   45    47     1     0     0
SMALL
USER_CHARGES

@<TRIPOS>ATOM
      1 PG         -4.7575    5.7390    2.3866 P.3       1 GTP        -1.1921
      2 O1G        -4.3715    4.2750    2.5693 O.co2     1 GTP         0.3195
      3 O2G        -4.7328    6.5617    3.6701 O.co2     1 GTP         0.3195
      4 O3G        -6.0034    5.9544    1.5335 O.co2     1 GTP         0.3195
      5 O3B        -3.5424    6.3715    1.4704 O.3       1 GTP         0.4672
      6 PB         -2.9924    5.9896   -0.0188 P.3       1 GTP        -1.1062
      7 O1B        -4.0968    5.2993   -0.7878 O.co2     1 GTP         0.3195
      8 O2B        -2.2880    7.2008   -0.5892 O.co2     1 GTP         0.3195
      9 O3A        -1.8678    4.8810    0.3924 O.3       1 GTP         0.4672
     10 PA         -0.5530    5.0212    1.3251 P.3       1 GTP        -0.9715
     11 O1A         0.4406    6.0342    0.8349 O.2       1 GTP         0.2707
     12 O2A        -1.1505    5.3124    2.8001 O.3       1 GTP         0.0326
     13 O5'         0.0166    3.5128    1.4591 O.3       1 GTP         0.1618
     14 C5'        -0.8811    2.4285    1.6206 C.3       1 GTP         0.1504
     15 C4'        -0.1994    1.3333    2.4288 C.3       1 GTP         0.1111
     16 O4'        -1.1285    0.2356    2.5840 O.3       1 GTP        -0.1436
     17 C3'         1.0324    0.7610    1.7344 C.3       1 GTP         0.1111
     18 O3'         1.9175    0.2377    2.7247 O.3       1 GTP        -0.2728
     19 C2'         0.4468   -0.3802    0.9263 C.3       1 GTP         0.1111
     20 O2'         1.3993   -1.3703    0.5961 O.3       1 GTP        -0.2728
     21 C1'        -0.6159   -0.9100    1.8769 C.3       1 GTP         0.0918
     22 N9         -1.7127   -1.6108    1.2130 N.pl3     1 GTP        -0.0449
     23 C8         -1.7695   -2.9586    0.9546 C.ar      1 GTP         0.4884
     24 N7         -2.8846   -3.3047    0.3416 N.2       1 GTP        -0.5260
     25 C5         -3.5626   -2.1296    0.2052 C.ar      1 GTP         0.4178
     26 C6         -4.8477   -1.8989   -0.3942 C.ar      1 GTP         0.2530
     27 O6         -5.5373   -2.7819   -0.8881 O.2       1 GTP        -0.2755
     28 N1         -5.1895   -0.5407   -0.3318 N.pl3     1 GTP        -0.1604
     29 C2         -4.3899    0.4774    0.2398 C.ar      1 GTP         0.4468
     30 N2         -4.9233    1.7390    0.1898 N.pl3     1 GTP        -0.5618
     31 N3         -3.2159    0.2368    0.7822 N.2       1 GTP        -0.4271
     32 C4         -2.8678   -1.0679    0.7322 C.ar      1 GTP         0.0498
     33 HOA2       -0.5338    5.3572    3.5615 H         1 GTP         0.2010
     34 H5'        -1.7777    2.7838    2.1390 H         1 GTP        -0.0393
     35 H5''       -1.1661    2.0530    0.6323 H         1 GTP        -0.0393
     36 H4'         0.0402    1.7079    3.4342 H         1 GTP        -0.0393
     37 H3'         1.5907    1.4859    1.1353 H         1 GTP        -0.0393
     38 HO3'        2.6839   -0.1150    2.2479 H         1 GTP         0.2010
     39 H2'        -0.0017    0.0018    0.0005 H         1 GTP        -0.0393
     40 HO2'        2.0953   -0.9375    0.0709 H         1 GTP         0.2010
     41 H1'        -0.1998   -1.6319    2.6178 H         1 GTP        -0.0393
     42 H8         -0.9713   -3.6323    1.2352 H         1 GTP        -0.1369
     43 HN1        -6.0831   -0.2651   -0.7290 H         1 GTP         0.0865
     44 HN21       -4.3985    2.4878    0.5788 H         1 GTP         0.2048
     45 HN22       -5.8145    1.8572   -0.2335 H         1 GTP         0.2048
@<TRIPOS>BOND
     1    1    2 2
     2    1    3 1
     3    1    4 1
     4    1    5 1
     5    5    6 1
     6    6    7 2
     7    6    8 1
     8    6    9 1
     9    9   10 1
    10   10   11 2
    11   10   12 1
    12   10   13 1
    13   12   33 1
    14   13   14 1
    15   14   15 1
    16   14   34 1
    17   14   35 1
    18   15   16 1
    19   15   17 1
    20   15   36 1
    21   16   21 1
    22   17   18 1
    23   17   19 1
    24   17   37 1
    25   18   38 1
    26   19   20 1
    27   19   21 1
    28   19   39 1
    29   20   40 1
    30   21   22 1
    31   21   41 1
    32   22   23 ar
    33   22   32 ar
    34   23   24 ar
    35   23   42 1
    36   24   25 ar
    37   25   26 ar
    38   25   32 ar
    39   26   27 2
    40   26   28 ar
    41   28   29 ar
    42   28   43 1
    43   29   30 1
    44   29   31 ar
    45   30   44 1
    46   30   45 1
    47   31   32 ar
@<TRIPOS>SUBSTRUCTURE
     1 GTP         1 GROUP 0 A     ****
@<TRIPOS>MOLECULE
[[[5-(2-amino-6-oxo-1~{H}-purin-9-yl)-3,4-dihydroxy-tetrahydrofuran-2-yl]methoxy-hydroxy-phosphoryl]oxy-oxido-phosphoryl] phosphate
   45    47     1     0     0
SMALL
USER_CHARGES

@<TRIPOS>ATOM
      1 PG          2.2585    4.6294    4.7632 P.3       1 GTP        -1.1921
      2 O1G         2.9384    5.6190    3.8230 O.co2     1 GTP         0.3195
      3 O2G         3.0359    4.3406    6.0428 O.co2     1 GTP         0.3195
      4 O3G         1.7145    3.3836    4.0713 O.co2     1 GTP         0.3195
      5 O3B         0.9035    5.4154    5.2749 O.3       1 GTP         0.4672
      6 PB         -0.3741    6.0226    4.4593 P.3       1 GTP        -1.1062
      7 O1B        -1.4081    6.5024    5.4535 O.co2     1 GTP         0.3195
      8 O2B         0.1477    6.9411    3.3764 O.co2     1 GTP         0.3195
      9 O3A        -0.9157    4.6512    3.7600 O.3       1 GTP         0.4672
     10 PA         -2.1747    4.4070    2.7734 P.3       1 GTP        -0.9715
     11 O1A        -3.5015    4.7779    3.3701 O.2       1 GTP         0.2707
     12 O2A        -1.7813    5.2194    1.4308 O.3       1 GTP         0.0326
     13 O5'        -2.0394    2.8623    2.3117 O.3       1 GTP         0.1618
     14 C5'        -0.8811    2.4285    1.6206 C.3       1 GTP         0.1504
     15 C4'        -0.1994    1.3333    2.4288 C.3       1 GTP         0.1111
     16 O4'        -1.1285    0.2356    2.5840 O.3       1 GTP        -0.1436
     17 C3'         1.0324    0.7610    1.7344 C.3       1 GTP         0.1111
     18 O3'         1.9175    0.2377    2.7247 O.3       1 GTP        -0.2728
     19 C2'         0.4468   -0.3802    0.9263 C.3       1 GTP         0.1111
     20 O2'         1.3993   -1.3703    0.5961 O.3       1 GTP        -0.2728
     21 C1'        -0.6159   -0.9100    1.8769 C.3       1 GTP         0.0918
     22 N9         -1.7127   -1.6108    1.2130 N.pl3     1 GTP        -0.0449
     23 C8         -1.7695   -2.9586    0.9546 C.ar      1 GTP         0.4884
     24 N7         -2.8846   -3.3047    0.3416 N.2       1 GTP        -0.5260
     25 C5         -3.5626   -2.1296    0.2052 C.ar      1 GTP         0.4178
     26 C6         -4.8477   -1.8989   -0.3942 C.ar      1 GTP         0.2530
     27 O6         -5.5373   -2.7819   -0.8881 O.2       1 GTP        -0.2755
     28 N1         -5.1895   -0.5407   -0.3318 N.pl3     1 GTP        -0.1604
     29 C2         -4.3899    0.4774    0.2398 C.ar      1 GTP         0.4468
     30 N2         -4.9233    1.7390    0.1898 N.pl3     1 GTP        -0.5618
     31 N3         -3.2159    0.2368    0.7822 N.2       1 GTP        -0.4271
     32 C4         -2.8678   -1.0679    0.7322 C.ar      1 GTP         0.0498
     33 HOA2       -1.7042    6.1964    1.4728 H         1 GTP         0.2010
     34 H5'        -1.1757    2.0497    0.6364 H         1 GTP        -0.0393
     35 H5''       -0.2069    3.2809    1.4872 H         1 GTP        -0.0393
     36 H4'         0.0402    1.7079    3.4342 H         1 GTP        -0.0393
     37 H3'         1.5907    1.4859    1.1353 H         1 GTP        -0.0393
     38 HO3'        2.6839   -0.1150    2.2479 H         1 GTP         0.2010
     39 H2'        -0.0017    0.0018    0.0005 H         1 GTP        -0.0393
     40 HO2'        2.0953   -0.9375    0.0709 H         1 GTP         0.2010
     41 H1'        -0.1998   -1.6319    2.6178 H         1 GTP        -0.0393
     42 H8         -0.9713   -3.6323    1.2352 H         1 GTP        -0.1369
     43 HN1        -6.0831   -0.2651   -0.7290 H         1 GTP         0.0865
     44 HN21       -4.3985    2.4878    0.5788 H         1 GTP         0.2048
     45 HN22       -5.8145    1.8572   -0.2335 H         1 GTP         0.2048
@<TRIPOS>BOND
     1    1    2 2
     2    1    3 1
     3    1    4 1
     4    1    5 1
     5    5    6 1
     6    6    7 2
     7    6    8 1
     8    6    9 1
     9    9   10 1
    10   10   11 2
    11   10   12 1
    12   10   13 1
    13   12   33 1
    14   13   14 1
    15   14   15 1
    16   14   34 1
    17   14   35 1
    18   15   16 1
    19   15   17 1
    20   15   36 1
    21   16   21 1
    22   17   18 1
    23   17   19 1
    24   17   37 1
    25   18   38 1
    26   19   20 1
    27   19   21 1
    28   19   39 1
    29   20   40 1
    30   21   22 1
    31   21   41 1
    32   22   23 ar
    33   22   32 ar
    34   23   24 ar
    35   23   42 1
    36   24   25 ar
    37   25   26 ar
    38   25   32 ar
    39   26   27 2
    40   26   28 ar
    41   28   29 ar
    42   28   43 1
    43   29   30 1
    44   29   31 ar
    45   30   44 1
    46   30   45 1
    47   31   32 ar
@<TRIPOS>SUBSTRUCTURE
     1 GTP         1 GROUP 0 A     ****
@<TRIPOS>MOLECULE
[[[5-(2-amino-6-oxo-1~{H}-purin-9-yl)-3,4-dihydroxy-tetrahydrofuran-2-yl]methoxy-hydroxy-phosphoryl]oxy-oxido-phosphoryl] phosphate
   45    47     1     0     0
SMALL
USER_CHARGES

@<TRIPOS>ATOM
      1 PG          0.6494    8.9643    1.1079 P.3       1 GTP        -1.1921
      2 O1G         2.0893    8.4621    1.1002 O.co2     1 GTP         0.3195
      3 O2G         0.2417    9.7269   -0.1479 O.co2     1 GTP         0.3195
      4 O3G         0.2309    9.6404    2.4096 O.co2     1 GTP         0.3195
      5 O3B        -0.2630    7.5925    1.0692 O.3       1 GTP         0.4672
      6 PB         -0.3550    6.3192    2.0872 P.3       1 GTP        -1.1062
      7 O1B         0.9574    5.5682    2.0536 O.co2     1 GTP         0.3195
      8 O2B        -0.9420    6.7999    3.3960 O.co2     1 GTP         0.3195
      9 O3A        -1.4837    5.4378    1.3049 O.3       1 GTP         0.4672
     10 PA         -2.5918    4.4091    1.8810 P.3       1 GTP        -0.9715
     11 O1A        -3.5610    5.0295    2.8451 O.2       1 GTP         0.2707
     12 O2A        -3.2642    3.7761    0.5527 O.3       1 GTP         0.0326
     13 O5'        -1.7333    3.1724    2.4738 O.3       1 GTP         0.1618
     14 C5'        -0.8811    2.4285    1.6206 C.3       1 GTP         0.1504
     15 C4'        -0.1994    1.3333    2.4288 C.3       1 GTP         0.1111
     16 O4'        -1.1285    0.2356    2.5840 O.3       1 GTP        -0.1436
     17 C3'         1.0324    0.7610    1.7344 C.3       1 GTP         0.1111
     18 O3'         1.9175    0.2377    2.7247 O.3       1 GTP        -0.2728
     19 C2'         0.4468   -0.3802    0.9263 C.3       1 GTP         0.1111
     20 O2'         1.3993   -1.3703    0.5961 O.3       1 GTP        -0.2728
     21 C1'        -0.6159   -0.9100    1.8769 C.3       1 GTP         0.0918
     22 N9         -1.7127   -1.6108    1.2130 N.pl3     1 GTP        -0.0449
     23 C8         -2.8667   -1.0365    0.7385 C.ar      1 GTP         0.4884
     24 N7         -3.6757   -1.9196    0.1868 N.2       1 GTP        -0.5260
     25 C5         -3.0088   -3.1018    0.3164 C.ar      1 GTP         0.4178
     26 C6         -3.4148   -4.4130   -0.1079 C.ar      1 GTP         0.2530
     27 O6         -4.4753   -4.6480   -0.6732 O.2       1 GTP        -0.2755
     28 N1         -2.4377   -5.3653    0.2144 N.pl3     1 GTP        -0.1604
     29 C2         -1.2132   -5.0902    0.8680 C.ar      1 GTP         0.4468
     30 N2         -0.4066   -6.1772    1.0834 N.pl3     1 GTP        -0.5618
     31 N3         -0.8672   -3.8786    1.2457 N.2       1 GTP        -0.4271
     32 C4         -1.7966   -2.9451    0.9439 C.ar      1 GTP         0.0498
     33 HOA2       -3.9218    3.0549    0.6513 H         1 GTP         0.2010
     34 H5'        -1.4792    1.9919    0.8140 H         1 GTP        -0.0393
     35 H5''       -0.1359    3.1032    1.1865 H         1 GTP        -0.0393
     36 H4'         0.0402    1.7079    3.4342 H         1 GTP        -0.0393
     37 H3'         1.5907    1.4859    1.1353 H         1 GTP        -0.0393
     38 HO3'        2.1521    0.9800    3.3017 H         1 GTP         0.2010
     39 H2'        -0.0017    0.0018    0.0005 H         1 GTP        -0.0393
     40 HO2'        0.9369   -2.0558    0.0825 H         1 GTP         0.2010
     41 H1'        -0.1998   -1.6319    2.6178 H         1 GTP        -0.0393
     42 H8         -3.0589    0.0244    0.8247 H         1 GTP        -0.1369
     43 HN1        -2.6238   -6.3307   -0.0420 H         1 GTP         0.0865
     44 HN21        0.4646   -6.0341    1.5394 H         1 GTP         0.2048
     45 HN22       -0.7235   -7.0673    0.7753 H         1 GTP         0.2048
@<TRIPOS>BOND
     1    1    2 2
     2    1    3 1
     3    1    4 1
     4    1    5 1
     5    5    6 1
     6    6    7 2
     7    6    8 1
     8    6    9 1
     9    9   10 1
    10   10   11 2
    11   10   12 1
    12   10   13 1
    13   12   33 1
    14   13   14 1
    15   14   15 1
    16   14   34 1
    17   14   35 1
    18   15   16 1
    19   15   17 1
    20   15   36 1
    21   16   21 1
    22   17   18 1
    23   17   19 1
    24   17   37 1
    25   18   38 1
    26   19   20 1
    27   19   21 1
    28   19   39 1
    29   20   40 1
    30   21   22 1
    31   21   41 1
    32   22   23 ar
    33   22   32 ar
    34   23   24 ar
    35   23   42 1
    36   24   25 ar
    37   25   26 ar
    38   25   32 ar
    39   26   27 2
    40   26   28 ar
    41   28   29 ar
    42   28   43 1
    43   29   30 1
    44   29   31 ar
    45   30   44 1
    46   30   45 1
    47   31   32 ar
@<TRIPOS>SUBSTRUCTURE
     1 GTP         1 GROUP 0 A     ****
@<TRIPOS>MOLECULE
[[[5-(2-amino-6-oxo-1~{H}-purin-9-yl)-3,4-dihydroxy-tetrahydrofuran-2-yl]methoxy-hydroxy-phosphoryl]oxy-oxido-phosphoryl] phosphate
   45    47     1     0     0
SMALL
USER_CHARGES

@<TRIPOS>ATOM
      1 PG          0.4206    8.0458    5.2771 P.3       1 GTP        -1.1921
      2 O1G         1.8862    8.3438    4.9791 O.co2     1 GTP         0.3195
      3 O2G        -0.4962    9.2621    5.2066 O.co2     1 GTP         0.3195
      4 O3G         0.1989    7.1701    6.5062 O.co2     1 GTP         0.3195
      5 O3B        -0.0663    7.0919    4.0246 O.3       1 GTP         0.4672
      6 PB          0.4617    5.6405    3.4948 P.3       1 GTP        -1.1062
      7 O1B         1.8692    5.7944    2.9629 O.co2     1 GTP         0.3195
      8 O2B         0.1383    4.6045    4.5488 O.co2     1 GTP         0.3195
      9 O3A        -0.5552    5.4343    2.2353 O.3       1 GTP         0.4672
     10 PA         -2.0140    4.7370    2.1722 P.3       1 GTP        -0.9715
     11 O1A        -3.0396    5.3809    3.0594 O.2       1 GTP         0.2707
     12 O2A        -2.3796    4.7395    0.5962 O.3       1 GTP         0.0326
     13 O5'        -1.7333    3.1724    2.4738 O.3       1 GTP         0.1618
     14 C5'        -0.8811    2.4285    1.6206 C.3       1 GTP         0.1504
     15 C4'        -0.1994    1.3333    2.4288 C.3       1 GTP         0.1111
     16 O4'        -1.1285    0.2356    2.5840 O.3       1 GTP        -0.1436
     17 C3'         1.0324    0.7610    1.7344 C.3       1 GTP         0.1111
     18 O3'         1.9175    0.2377    2.7247 O.3       1 GTP        -0.2728
     19 C2'         0.4468   -0.3802    0.9263 C.3       1 GTP         0.1111
     20 O2'         1.3993   -1.3703    0.5961 O.3       1 GTP        -0.2728
     21 C1'        -0.6159   -0.9100    1.8769 C.3       1 GTP         0.0918
     22 N9         -1.7127   -1.6108    1.2130 N.pl3     1 GTP        -0.0449
     23 C8         -2.8667   -1.0365    0.7385 C.ar      1 GTP         0.4884
     24 N7         -3.6757   -1.9196    0.1868 N.2       1 GTP        -0.5260
     25 C5         -3.0088   -3.1018    0.3164 C.ar      1 GTP         0.4178
     26 C6         -3.4148   -4.4130   -0.1079 C.ar      1 GTP         0.2530
     27 O6         -4.4753   -4.6480   -0.6732 O.2       1 GTP        -0.2755
     28 N1         -2.4377   -5.3653    0.2144 N.pl3     1 GTP        -0.1604
     29 C2         -1.2132   -5.0902    0.8680 C.ar      1 GTP         0.4468
     30 N2         -0.4066   -6.1772    1.0834 N.pl3     1 GTP        -0.5618
     31 N3         -0.8672   -3.8786    1.2457 N.2       1 GTP        -0.4271
     32 C4         -1.7966   -2.9451    0.9439 C.ar      1 GTP         0.0498
     33 HOA2       -2.5119    5.5984    0.1412 H         1 GTP         0.2010
     34 H5'        -1.4792    1.9919    0.8140 H         1 GTP        -0.0393
     35 H5''       -0.1359    3.1032    1.1865 H         1 GTP        -0.0393
     36 H4'         0.0402    1.7079    3.4342 H         1 GTP        -0.0393
     37 H3'         1.5907    1.4859    1.1353 H         1 GTP        -0.0393
     38 HO3'        2.1521    0.9800    3.3017 H         1 GTP         0.2010
     39 H2'        -0.0017    0.0018    0.0005 H         1 GTP        -0.0393
     40 HO2'        0.9369   -2.0558    0.0825 H         1 GTP         0.2010
     41 H1'        -0.1998   -1.6319    2.6178 H         1 GTP        -0.0393
     42 H8         -3.0589    0.0244    0.8247 H         1 GTP        -0.1369
     43 HN1        -2.6238   -6.3307   -0.0420 H         1 GTP         0.0865
     44 HN21        0.4646   -6.0341    1.5394 H         1 GTP         0.2048
     45 HN22       -0.7235   -7.0673    0.7753 H         1 GTP         0.2048
@<TRIPOS>BOND
     1    1    2 2
     2    1    3 1
     3    1    4 1
     4    1    5 1
     5    5    6 1
     6    6    7 2
     7    6    8 1
     8    6    9 1
     9    9   10 1
    10   10   11 2
    11   10   12 1
    12   10   13 1
    13   12   33 1
    14   13   14 1
    15   14   15 1
    16   14   34 1
    17   14   35 1
    18   15   16 1
    19   15   17 1
    20   15   36 1
    21   16   21 1
    22   17   18 1
    23   17   19 1
    24   17   37 1
    25   18   38 1
    26   19   20 1
    27   19   21 1
    28   19   39 1
    29   20   40 1
    30   21   22 1
    31   21   41 1
    32   22   23 ar
    33   22   32 ar
    34   23   24 ar
    35   23   42 1
    36   24   25 ar
    37   25   26 ar
    38   25   32 ar
    39   26   27 2
    40   26   28 ar
    41   28   29 ar
    42   28   43 1
    43   29   30 1
    44   29   31 ar
    45   30   44 1
    46   30   45 1
    47   31   32 ar
@<TRIPOS>SUBSTRUCTURE
     1 GTP         1 GROUP 0 A     ****
@<TRIPOS>MOLECULE
[[[5-(2-amino-6-oxo-1~{H}-purin-9-yl)-3,4-dihydroxy-tetrahydrofuran-2-yl]methoxy-hydroxy-phosphoryl]oxy-oxido-phosphoryl] phosphate
   45    47     1     0     0
SMALL
USER_CHARGES

@<TRIPOS>ATOM
      1 PG         -1.8703    9.4916    1.1253 P.3       1 GTP        -1.1921
      2 O1G        -2.3299    9.8334    2.5387 O.co2     1 GTP         0.3195
      3 O2G        -0.4892   10.0279    0.7653 O.co2     1 GTP         0.3195
      4 O3G        -2.9278    9.7252    0.0512 O.co2     1 GTP         0.3195
      5 O3B        -1.6835    7.8543    1.1402 O.3       1 GTP         0.4672
      6 PB         -2.7355    6.6431    1.4443 P.3       1 GTP        -1.1062
      7 O1B        -3.1545    6.7098    2.8961 O.co2     1 GTP         0.3195
      8 O2B        -3.7671    6.6219    0.3379 O.co2     1 GTP         0.3195
      9 O3A        -1.7350    5.3694    1.2453 O.3       1 GTP         0.4672
     10 PA         -0.3734    4.9769    2.0265 P.3       1 GTP        -0.9715
     11 O1A         0.7121    6.0087    1.9217 O.2       1 GTP         0.2707
     12 O2A        -0.8666    4.6588    3.5341 O.3       1 GTP         0.0326
     13 O5'         0.0166    3.5128    1.4591 O.3       1 GTP         0.1618
     14 C5'        -0.8811    2.4285    1.6206 C.3       1 GTP         0.1504
     15 C4'        -0.1994    1.3333    2.4288 C.3       1 GTP         0.1111
     16 O4'        -1.1285    0.2356    2.5840 O.3       1 GTP        -0.1436
     17 C3'         1.0324    0.7610    1.7344 C.3       1 GTP         0.1111
     18 O3'         1.9175    0.2377    2.7247 O.3       1 GTP        -0.2728
     19 C2'         0.4468   -0.3802    0.9263 C.3       1 GTP         0.1111
     20 O2'         1.3993   -1.3703    0.5961 O.3       1 GTP        -0.2728
     21 C1'        -0.6159   -0.9100    1.8769 C.3       1 GTP         0.0918
     22 N9         -1.7127   -1.6108    1.2130 N.pl3     1 GTP        -0.0449
     23 C8         -2.8667   -1.0365    0.7385 C.ar      1 GTP         0.4884
     24 N7         -3.6757   -1.9196    0.1868 N.2       1 GTP        -0.5260
     25 C5         -3.0088   -3.1018    0.3164 C.ar      1 GTP         0.4178
     26 C6         -3.4148   -4.4130   -0.1079 C.ar      1 GTP         0.2530
     27 O6         -4.4753   -4.6480   -0.6732 O.2       1 GTP        -0.2755
     28 N1         -2.4377   -5.3653    0.2144 N.pl3     1 GTP        -0.1604
     29 C2         -1.2132   -5.0902    0.8680 C.ar      1 GTP         0.4468
     30 N2         -0.4066   -6.1772    1.0834 N.pl3     1 GTP        -0.5618
     31 N3         -0.8672   -3.8786    1.2457 N.2       1 GTP        -0.4271
     32 C4         -1.7966   -2.9451    0.9439 C.ar      1 GTP         0.0498
     33 HOA2       -0.2163    4.3168    4.1839 H         1 GTP         0.2010
     34 H5'        -1.7777    2.7838    2.1390 H         1 GTP        -0.0393
     35 H5''       -1.1661    2.0530    0.6323 H         1 GTP        -0.0393
     36 H4'         0.0402    1.7079    3.4342 H         1 GTP        -0.0393
     37 H3'         1.5907    1.4859    1.1353 H         1 GTP        -0.0393
     38 HO3'        2.6839   -0.1150    2.2479 H         1 GTP         0.2010
     39 H2'        -0.0017    0.0018    0.0005 H         1 GTP        -0.0393
     40 HO2'        2.0953   -0.9375    0.0709 H         1 GTP         0.2010
     41 H1'        -0.1998   -1.6319    2.6178 H         1 GTP        -0.0393
     42 H8         -3.0589    0.0244    0.8247 H         1 GTP        -0.1369
     43 HN1        -2.6238   -6.3307   -0.0420 H         1 GTP         0.0865
     44 HN21        0.4646   -6.0341    1.5394 H         1 GTP         0.2048
     45 HN22       -0.7235   -7.0673    0.7753 H         1 GTP         0.2048
@<TRIPOS>BOND
     1    1    2 2
     2    1    3 1
     3    1    4 1
     4    1    5 1
     5    5    6 1
     6    6    7 2
     7    6    8 1
     8    6    9 1
     9    9   10 1
    10   10   11 2
    11   10   12 1
    12   10   13 1
    13   12   33 1
    14   13   14 1
    15   14   15 1
    16   14   34 1
    17   14   35 1
    18   15   16 1
    19   15   17 1
    20   15   36 1
    21   16   21 1
    22   17   18 1
    23   17   19 1
    24   17   37 1
    25   18   38 1
    26   19   20 1
    27   19   21 1
    28   19   39 1
    29   20   40 1
    30   21   22 1
    31   21   41 1
    32   22   23 ar
    33   22   32 ar
    34   23   24 ar
    35   23   42 1
    36   24   25 ar
    37   25   26 ar
    38   25   32 ar
    39   26   27 2
    40   26   28 ar
    41   28   29 ar
    42   28   43 1
    43   29   30 1
    44   29   31 ar
    45   30   44 1
    46   30   45 1
    47   31   32 ar
@<TRIPOS>SUBSTRUCTURE
     1 GTP         1 GROUP 0 A     ****
@<TRIPOS>MOLECULE
[[[5-(2-amino-6-oxo-1~{H}-purin-9-yl)-3,4-dihydroxy-tetrahydrofuran-2-yl]methoxy-hydroxy-phosphoryl]oxy-oxido-phosphoryl] phosphate
   45    47     1     0     0
SMALL
USER_CHARGES

@<TRIPOS>ATOM
      1 PG         -4.1728    7.2332    4.0037 P.3       1 GTP        -1.1921
      2 O1G        -5.5253    7.2044    3.2997 O.co2     1 GTP         0.3195
      3 O2G        -4.1291    6.4575    5.3157 O.co2     1 GTP         0.3195
      4 O3G        -3.5369    8.6176    4.0780 O.co2     1 GTP         0.3195
      5 O3B        -3.1702    6.3961    2.9987 O.3       1 GTP         0.4672
      6 PB         -2.7355    6.6431    1.4443 P.3       1 GTP        -1.1062
      7 O1B        -3.9473    6.4521    0.5595 O.co2     1 GTP         0.3195
      8 O2B        -1.9166    7.9133    1.3770 O.co2     1 GTP         0.3195
      9 O3A        -1.7350    5.3694    1.2453 O.3       1 GTP         0.4672
     10 PA         -0.3734    4.9769    2.0265 P.3       1 GTP        -0.9715
     11 O1A         0.7121    6.0087    1.9217 O.2       1 GTP         0.2707
     12 O2A        -0.8666    4.6588    3.5341 O.3       1 GTP         0.0326
     13 O5'         0.0166    3.5128    1.4591 O.3       1 GTP         0.1618
     14 C5'        -0.8811    2.4285    1.6206 C.3       1 GTP         0.1504
     15 C4'        -0.1994    1.3333    2.4288 C.3       1 GTP         0.1111
     16 O4'        -1.1285    0.2356    2.5840 O.3       1 GTP        -0.1436
     17 C3'         1.0324    0.7610    1.7344 C.3       1 GTP         0.1111
     18 O3'         1.9175    0.2377    2.7247 O.3       1 GTP        -0.2728
     19 C2'         0.4468   -0.3802    0.9263 C.3       1 GTP         0.1111
     20 O2'         1.3993   -1.3703    0.5961 O.3       1 GTP        -0.2728
     21 C1'        -0.6159   -0.9100    1.8769 C.3       1 GTP         0.0918
     22 N9         -1.7127   -1.6108    1.2130 N.pl3     1 GTP        -0.0449
     23 C8         -2.8667   -1.0365    0.7385 C.ar      1 GTP         0.4884
     24 N7         -3.6757   -1.9196    0.1868 N.2       1 GTP        -0.5260
     25 C5         -3.0088   -3.1018    0.3164 C.ar      1 GTP         0.4178
     26 C6         -3.4148   -4.4130   -0.1079 C.ar      1 GTP         0.2530
     27 O6         -4.4753   -4.6480   -0.6732 O.2       1 GTP        -0.2755
     28 N1         -2.4377   -5.3653    0.2144 N.pl3     1 GTP        -0.1604
     29 C2         -1.2132   -5.0902    0.8680 C.ar      1 GTP         0.4468
     30 N2         -0.4066   -6.1772    1.0834 N.pl3     1 GTP        -0.5618
     31 N3         -0.8672   -3.8786    1.2457 N.2       1 GTP        -0.4271
     32 C4         -1.7966   -2.9451    0.9439 C.ar      1 GTP         0.0498
     33 HOA2       -1.2434    5.3862    4.0735 H         1 GTP         0.2010
     34 H5'        -1.7777    2.7838    2.1390 H         1 GTP        -0.0393
     35 H5''       -1.1661    2.0530    0.6323 H         1 GTP        -0.0393
     36 H4'         0.0402    1.7079    3.4342 H         1 GTP        -0.0393
     37 H3'         1.5907    1.4859    1.1353 H         1 GTP        -0.0393
     38 HO3'        2.6839   -0.1150    2.2479 H         1 GTP         0.2010
     39 H2'        -0.0017    0.0018    0.0005 H         1 GTP        -0.0393
     40 HO2'        2.0953   -0.9375    0.0709 H         1 GTP         0.2010
     41 H1'        -0.1998   -1.6319    2.6178 H         1 GTP        -0.0393
     42 H8         -3.0589    0.0244    0.8247 H         1 GTP        -0.1369
     43 HN1        -2.6238   -6.3307   -0.0420 H         1 GTP         0.0865
     44 HN21        0.4646   -6.0341    1.5394 H         1 GTP         0.2048
     45 HN22       -0.7235   -7.0673    0.7753 H         1 GTP         0.2048
@<TRIPOS>BOND
     1    1    2 2
     2    1    3 1
     3    1    4 1
     4    1    5 1
     5    5    6 1
     6    6    7 2
     7    6    8 1
     8    6    9 1
     9    9   10 1
    10   10   11 2
    11   10   12 1
    12   10   13 1
    13   12   33 1
    14   13   14 1
    15   14   15 1
    16   14   34 1
    17   14   35 1
    18   15   16 1
    19   15   17 1
    20   15   36 1
    21   16   21 1
    22   17   18 1
    23   17   19 1
    24   17   37 1
    25   18   38 1
    26   19   20 1
    27   19   21 1
    28   19   39 1
    29   20   40 1
    30   21   22 1
    31   21   41 1
    32   22   23 ar
    33   22   32 ar
    34   23   24 ar
    35   23   42 1
    36   24   25 ar
    37   25   26 ar
    38   25   32 ar
    39   26   27 2
    40   26   28 ar
    41   28   29 ar
    42   28   43 1
    43   29   30 1
    44   29   31 ar
    45   30   44 1
    46   30   45 1
    47   31   32 ar
@<TRIPOS>SUBSTRUCTURE
     1 GTP         1 GROUP 0 A     ****
@<TRIPOS>MOLECULE
[[[5-(2-amino-6-oxo-1~{H}-purin-9-yl)-3,4-dihydroxy-tetrahydrofuran-2-yl]methoxy-hydroxy-phosphoryl]oxy-oxido-phosphoryl] phosphate
   45    47     1     0     0
SMALL
USER_CHARGES

@<TRIPOS>ATOM
      1 PG         -2.3866    8.5047   -0.2442 P.3       1 GTP        -1.1921
      2 O1G        -1.8364    8.5552   -1.6656 O.co2     1 GTP         0.3195
      3 O2G        -3.7718    9.1214   -0.0829 O.co2     1 GTP         0.3195
      4 O3G        -1.3878    8.9295    0.8274 O.co2     1 GTP         0.3195
      5 O3B        -2.6156    6.8993    0.0494 O.3       1 GTP         0.4672
      6 PB         -1.5802    5.6368    0.0541 P.3       1 GTP        -1.1062
      7 O1B        -1.0755    5.4107   -1.3536 O.co2     1 GTP         0.3195
      8 O2B        -0.6159    5.8186    1.2055 O.co2     1 GTP         0.3195
      9 O3A        -2.6241    4.4418    0.4352 O.3       1 GTP         0.4672
     10 PA         -3.0699    3.8636    1.8791 P.3       1 GTP        -0.9715
     11 O1A        -3.7108    4.8828    2.7759 O.2       1 GTP         0.2707
     12 O2A        -4.0026    2.5917    1.5188 O.3       1 GTP         0.0326
     13 O5'        -1.7333    3.1724    2.4738 O.3       1 GTP         0.1618
     14 C5'        -0.8811    2.4285    1.6206 C.3       1 GTP         0.1504
     15 C4'        -0.1994    1.3333    2.4288 C.3       1 GTP         0.1111
     16 O4'        -1.1285    0.2356    2.5840 O.3       1 GTP        -0.1436
     17 C3'         1.0324    0.7610    1.7344 C.3       1 GTP         0.1111
     18 O3'         1.9175    0.2377    2.7247 O.3       1 GTP        -0.2728
     19 C2'         0.4468   -0.3802    0.9263 C.3       1 GTP         0.1111
     20 O2'         1.3993   -1.3703    0.5961 O.3       1 GTP        -0.2728
     21 C1'        -0.6159   -0.9100    1.8769 C.3       1 GTP         0.0918
     22 N9         -1.7127   -1.6108    1.2130 N.pl3     1 GTP        -0.0449
     23 C8         -2.8667   -1.0365    0.7385 C.ar      1 GTP         0.4884
     24 N7         -3.6757   -1.9196    0.1868 N.2       1 GTP        -0.5260
     25 C5         -3.0088   -3.1018    0.3164 C.ar      1 GTP         0.4178
     26 C6         -3.4148   -4.4130   -0.1079 C.ar      1 GTP         0.2530
     27 O6         -4.4753   -4.6480   -0.6732 O.2       1 GTP        -0.2755
     28 N1         -2.4377   -5.3653    0.2144 N.pl3     1 GTP        -0.1604
     29 C2         -1.2132   -5.0902    0.8680 C.ar      1 GTP         0.4468
     30 N2         -0.4066   -6.1772    1.0834 N.pl3     1 GTP        -0.5618
     31 N3         -0.8672   -3.8786    1.2457 N.2       1 GTP        -0.4271
     32 C4         -1.7966   -2.9451    0.9439 C.ar      1 GTP         0.0498
     33 HOA2       -4.3319    2.0233    2.2473 H         1 GTP         0.2010
     34 H5'        -1.4792    1.9919    0.8140 H         1 GTP        -0.0393
     35 H5''       -0.1359    3.1032    1.1865 H         1 GTP        -0.0393
     36 H4'         0.0402    1.7079    3.4342 H         1 GTP        -0.0393
     37 H3'         1.5907    1.4859    1.1353 H         1 GTP        -0.0393
     38 HO3'        2.6839   -0.1150    2.2479 H         1 GTP         0.2010
     39 H2'        -0.0017    0.0018    0.0005 H         1 GTP        -0.0393
     40 HO2'        0.9369   -2.0558    0.0825 H         1 GTP         0.2010
     41 H1'        -0.1998   -1.6319    2.6178 H         1 GTP        -0.0393
     42 H8         -3.0589    0.0244    0.8247 H         1 GTP        -0.1369
     43 HN1        -2.6238   -6.3307   -0.0420 H         1 GTP         0.0865
     44 HN21        0.4646   -6.0341    1.5394 H         1 GTP         0.2048
     45 HN22       -0.7235   -7.0673    0.7753 H         1 GTP         0.2048
@<TRIPOS>BOND
     1    1    2 2
     2    1    3 1
     3    1    4 1
     4    1    5 1
     5    5    6 1
     6    6    7 2
     7    6    8 1
     8    6    9 1
     9    9   10 1
    10   10   11 2
    11   10   12 1
    12   10   13 1
    13   12   33 1
    14   13   14 1
    15   14   15 1
    16   14   34 1
    17   14   35 1
    18   15   16 1
    19   15   17 1
    20   15   36 1
    21   16   21 1
    22   17   18 1
    23   17   19 1
    24   17   37 1
    25   18   38 1
    26   19   20 1
    27   19   21 1
    28   19   39 1
    29   20   40 1
    30   21   22 1
    31   21   41 1
    32   22   23 ar
    33   22   32 ar
    34   23   24 ar
    35   23   42 1
    36   24   25 ar
    37   25   26 ar
    38   25   32 ar
    39   26   27 2
    40   26   28 ar
    41   28   29 ar
    42   28   43 1
    43   29   30 1
    44   29   31 ar
    45   30   44 1
    46   30   45 1
    47   31   32 ar
@<TRIPOS>SUBSTRUCTURE
     1 GTP         1 GROUP 0 A     ****
@<TRIPOS>MOLECULE
[[[5-(2-amino-6-oxo-1~{H}-purin-9-yl)-3,4-dihydroxy-tetrahydrofuran-2-yl]methoxy-hydroxy-phosphoryl]oxy-oxido-phosphoryl] phosphate
   45    47     1     0     0
SMALL
USER_CHARGES

@<TRIPOS>ATOM
      1 PG         -1.4786    8.6582    1.7221 P.3       1 GTP        -1.1921
      2 O1G        -0.8026    9.5017    0.6464 O.co2     1 GTP         0.3195
      3 O2G        -2.5355    9.4005    2.5327 O.co2     1 GTP         0.3195
      4 O3G        -0.5134    7.8325    2.5665 O.co2     1 GTP         0.3195
      5 O3B        -2.3286    7.5251    0.8799 O.3       1 GTP         0.4672
      6 PB         -1.8557    6.3806   -0.1843 P.3       1 GTP        -1.1062
      7 O1B        -3.0273    6.0198   -1.0702 O.co2     1 GTP         0.3195
      8 O2B        -0.5322    6.8060   -0.7812 O.co2     1 GTP         0.3195
      9 O3A        -1.5853    5.1512    0.8542 O.3       1 GTP         0.4672
     10 PA         -2.5918    4.4091    1.8810 P.3       1 GTP        -0.9715
     11 O1A        -3.1931    5.3178    2.9137 O.2       1 GTP         0.2707
     12 O2A        -3.6618    3.6740    0.9155 O.3       1 GTP         0.0326
     13 O5'        -1.7333    3.1724    2.4738 O.3       1 GTP         0.1618
     14 C5'        -0.8811    2.4285    1.6206 C.3       1 GTP         0.1504
     15 C4'        -0.1994    1.3333    2.4288 C.3       1 GTP         0.1111
     16 O4'        -1.1285    0.2356    2.5840 O.3       1 GTP        -0.1436
     17 C3'         1.0324    0.7610    1.7344 C.3       1 GTP         0.1111
     18 O3'         1.9175    0.2377    2.7247 O.3       1 GTP        -0.2728
     19 C2'         0.4468   -0.3802    0.9263 C.3       1 GTP         0.1111
     20 O2'         1.3993   -1.3703    0.5961 O.3       1 GTP        -0.2728
     21 C1'        -0.6159   -0.9100    1.8769 C.3       1 GTP         0.0918
     22 N9         -1.7127   -1.6108    1.2130 N.pl3     1 GTP        -0.0449
     23 C8         -2.8667   -1.0365    0.7385 C.ar      1 GTP         0.4884
     24 N7         -3.6757   -1.9196    0.1868 N.2       1 GTP        -0.5260
     25 C5         -3.0088   -3.1018    0.3164 C.ar      1 GTP         0.4178
     26 C6         -3.4148   -4.4130   -0.1079 C.ar      1 GTP         0.2530
     27 O6         -4.4753   -4.6480   -0.6732 O.2       1 GTP        -0.2755
     28 N1         -2.4377   -5.3653    0.2144 N.pl3     1 GTP        -0.1604
     29 C2         -1.2132   -5.0902    0.8680 C.ar      1 GTP         0.4468
     30 N2         -0.4066   -6.1772    1.0834 N.pl3     1 GTP        -0.5618
     31 N3         -0.8672   -3.8786    1.2457 N.2       1 GTP        -0.4271
     32 C4         -1.7966   -2.9451    0.9439 C.ar      1 GTP         0.0498
     33 HOA2       -4.2568    4.2231    0.3619 H         1 GTP         0.2010
     34 H5'        -1.4792    1.9919    0.8140 H         1 GTP        -0.0393
     35 H5''       -0.1359    3.1032    1.1865 H         1 GTP        -0.0393
     36 H4'         0.0402    1.7079    3.4342 H         1 GTP        -0.0393
     37 H3'         1.5907    1.4859    1.1353 H         1 GTP        -0.0393
     38 HO3'        2.6839   -0.1150    2.2479 H         1 GTP         0.2010
     39 H2'        -0.0017    0.0018    0.0005 H         1 GTP        -0.0393
     40 HO2'        0.9369   -2.0558    0.0825 H         1 GTP         0.2010
     41 H1'        -0.1998   -1.6319    2.6178 H         1 GTP        -0.0393
     42 H8         -3.0589    0.0244    0.8247 H         1 GTP        -0.1369
     43 HN1        -2.6238   -6.3307   -0.0420 H         1 GTP         0.0865
     44 HN21        0.4646   -6.0341    1.5394 H         1 GTP         0.2048
     45 HN22       -0.7235   -7.0673    0.7753 H         1 GTP         0.2048
@<TRIPOS>BOND
     1    1    2 2
     2    1    3 1
     3    1    4 1
     4    1    5 1
     5    5    6 1
     6    6    7 2
     7    6    8 1
     8    6    9 1
     9    9   10 1
    10   10   11 2
    11   10   12 1
    12   10   13 1
    13   12   33 1
    14   13   14 1
    15   14   15 1
    16   14   34 1
    17   14   35 1
    18   15   16 1
    19   15   17 1
    20   15   36 1
    21   16   21 1
    22   17   18 1
    23   17   19 1
    24   17   37 1
    25   18   38 1
    26   19   20 1
    27   19   21 1
    28   19   39 1
    29   20   40 1
    30   21   22 1
    31   21   41 1
    32   22   23 ar
    33   22   32 ar
    34   23   24 ar
    35   23   42 1
    36   24   25 ar
    37   25   26 ar
    38   25   32 ar
    39   26   27 2
    40   26   28 ar
    41   28   29 ar
    42   28   43 1
    43   29   30 1
    44   29   31 ar
    45   30   44 1
    46   30   45 1
    47   31   32 ar
@<TRIPOS>SUBSTRUCTURE
     1 GTP         1 GROUP 0 A     ****
@<TRIPOS>MOLECULE
[[[5-(2-amino-6-oxo-1~{H}-purin-9-yl)-3,4-dihydroxy-tetrahydrofuran-2-yl]methoxy-hydroxy-phosphoryl]oxy-oxido-phosphoryl] phosphate
   45    47     1     0     0
SMALL
USER_CHARGES

@<TRIPOS>ATOM
      1 PG         -0.6111    5.3385   -1.7892 P.3       1 GTP        -1.1921
      2 O1G         0.2010    4.4398   -0.8627 O.co2     1 GTP         0.3195
      3 O2G        -1.2074    4.6234   -2.9966 O.co2     1 GTP         0.3195
      4 O3G         0.0644    6.6648   -2.1227 O.co2     1 GTP         0.3195
      5 O3B        -1.9180    5.7814   -0.8881 O.3       1 GTP         0.4672
      6 PB         -2.0394    6.5793    0.5313 P.3       1 GTP        -1.1062
      7 O1B        -0.7957    7.4163    0.7318 O.co2     1 GTP         0.3195
      8 O2B        -3.4160    7.2020    0.6090 O.co2     1 GTP         0.3195
      9 O3A        -1.9864    5.3082    1.5532 O.3       1 GTP         0.4672
     10 PA         -2.9678    4.0282    1.6820 P.3       1 GTP        -0.9715
     11 O1A        -4.2384    4.3035    2.4327 O.2       1 GTP         0.2707
     12 O2A        -3.1728    3.5385    0.1537 O.3       1 GTP         0.0326
     13 O5'        -2.0394    2.8623    2.3117 O.3       1 GTP         0.1618
     14 C5'        -0.8811    2.4285    1.6206 C.3       1 GTP         0.1504
     15 C4'        -0.1994    1.3333    2.4288 C.3       1 GTP         0.1111
     16 O4'        -1.1285    0.2356    2.5840 O.3       1 GTP        -0.1436
     17 C3'         1.0324    0.7610    1.7344 C.3       1 GTP         0.1111
     18 O3'         1.9175    0.2377    2.7247 O.3       1 GTP        -0.2728
     19 C2'         0.4468   -0.3802    0.9263 C.3       1 GTP         0.1111
     20 O2'         1.3993   -1.3703    0.5961 O.3       1 GTP        -0.2728
     21 C1'        -0.6159   -0.9100    1.8769 C.3       1 GTP         0.0918
     22 N9         -1.7127   -1.6108    1.2130 N.pl3     1 GTP        -0.0449
     23 C8         -2.8667   -1.0365    0.7385 C.ar      1 GTP         0.4884
     24 N7         -3.6757   -1.9196    0.1868 N.2       1 GTP        -0.5260
     25 C5         -3.0088   -3.1018    0.3164 C.ar      1 GTP         0.4178
     26 C6         -3.4148   -4.4130   -0.1079 C.ar      1 GTP         0.2530
     27 O6         -4.4753   -4.6480   -0.6732 O.2       1 GTP        -0.2755
     28 N1         -2.4377   -5.3653    0.2144 N.pl3     1 GTP        -0.1604
     29 C2         -1.2132   -5.0902    0.8680 C.ar      1 GTP         0.4468
     30 N2         -0.4066   -6.1772    1.0834 N.pl3     1 GTP        -0.5618
     31 N3         -0.8672   -3.8786    1.2457 N.2       1 GTP        -0.4271
     32 C4         -1.7966   -2.9451    0.9439 C.ar      1 GTP         0.0498
     33 HOA2       -3.6406    4.1286   -0.4749 H         1 GTP         0.2010
     34 H5'        -1.1757    2.0497    0.6364 H         1 GTP        -0.0393
     35 H5''       -0.2069    3.2809    1.4872 H         1 GTP        -0.0393
     36 H4'         0.0402    1.7079    3.4342 H         1 GTP        -0.0393
     37 H3'         1.5907    1.4859    1.1353 H         1 GTP        -0.0393
     38 HO3'        2.6839   -0.1150    2.2479 H         1 GTP         0.2010
     39 H2'        -0.0017    0.0018    0.0005 H         1 GTP        -0.0393
     40 HO2'        0.9369   -2.0558    0.0825 H         1 GTP         0.2010
     41 H1'        -0.1998   -1.6319    2.6178 H         1 GTP        -0.0393
     42 H8         -3.0589    0.0244    0.8247 H         1 GTP        -0.1369
     43 HN1        -2.6238   -6.3307   -0.0420 H         1 GTP         0.0865
     44 HN21        0.4646   -6.0341    1.5394 H         1 GTP         0.2048
     45 HN22       -0.7235   -7.0673    0.7753 H         1 GTP         0.2048
@<TRIPOS>BOND
     1    1    2 2
     2    1    3 1
     3    1    4 1
     4    1    5 1
     5    5    6 1
     6    6    7 2
     7    6    8 1
     8    6    9 1
     9    9   10 1
    10   10   11 2
    11   10   12 1
    12   10   13 1
    13   12   33 1
    14   13   14 1
    15   14   15 1
    16   14   34 1
    17   14   35 1
    18   15   16 1
    19   15   17 1
    20   15   36 1
    21   16   21 1
    22   17   18 1
    23   17   19 1
    24   17   37 1
    25   18   38 1
    26   19   20 1
    27   19   21 1
    28   19   39 1
    29   20   40 1
    30   21   22 1
    31   21   41 1
    32   22   23 ar
    33   22   32 ar
    34   23   24 ar
    35   23   42 1
    36   24   25 ar
    37   25   26 ar
    38   25   32 ar
    39   26   27 2
    40   26   28 ar
    41   28   29 ar
    42   28   43 1
    43   29   30 1
    44   29   31 ar
    45   30   44 1
    46   30   45 1
    47   31   32 ar
@<TRIPOS>SUBSTRUCTURE
     1 GTP         1 GROUP 0 A     ****
@<TRIPOS>MOLECULE
[[[5-(2-amino-6-oxo-1~{H}-purin-9-yl)-3,4-dihydroxy-tetrahydrofuran-2-yl]methoxy-hydroxy-phosphoryl]oxy-oxido-phosphoryl] phosphate
   45    47     1     0     0
SMALL
USER_CHARGES

@<TRIPOS>ATOM
      1 PG         -2.4452    6.1018    5.7103 P.3       1 GTP        -1.1921
      2 O1G        -1.1903    6.5485    6.4527 O.co2     1 GTP         0.3195
      3 O2G        -3.7510    6.5766    6.3383 O.co2     1 GTP         0.3195
      4 O3G        -2.4451    4.6290    5.3137 O.co2     1 GTP         0.3195
      5 O3B        -2.3717    6.8950    4.2676 O.3       1 GTP         0.4672
      6 PB         -1.2597    6.8755    3.0721 P.3       1 GTP        -1.1062
      7 O1B        -1.7816    7.6811    1.9032 O.co2     1 GTP         0.3195
      8 O2B         0.0939    7.1733    3.6785 O.co2     1 GTP         0.3195
      9 O3A        -1.3176    5.2914    2.6847 O.3       1 GTP         0.4672
     10 PA         -2.5512    4.3890    2.1537 P.3       1 GTP        -0.9715
     11 O1A        -3.8625    4.6915    2.8192 O.2       1 GTP         0.2707
     12 O2A        -2.5345    4.6098    0.5511 O.3       1 GTP         0.0326
     13 O5'        -2.0394    2.8623    2.3117 O.3       1 GTP         0.1618
     14 C5'        -0.8811    2.4285    1.6206 C.3       1 GTP         0.1504
     15 C4'        -0.1994    1.3333    2.4288 C.3       1 GTP         0.1111
     16 O4'        -1.1285    0.2356    2.5840 O.3       1 GTP        -0.1436
     17 C3'         1.0324    0.7610    1.7344 C.3       1 GTP         0.1111
     18 O3'         1.9175    0.2377    2.7247 O.3       1 GTP        -0.2728
     19 C2'         0.4468   -0.3802    0.9263 C.3       1 GTP         0.1111
     20 O2'         1.3993   -1.3703    0.5961 O.3       1 GTP        -0.2728
     21 C1'        -0.6159   -0.9100    1.8769 C.3       1 GTP         0.0918
     22 N9         -1.7127   -1.6108    1.2130 N.pl3     1 GTP        -0.0449
     23 C8         -2.8667   -1.0365    0.7385 C.ar      1 GTP         0.4884
     24 N7         -3.6757   -1.9196    0.1868 N.2       1 GTP        -0.5260
     25 C5         -3.0088   -3.1018    0.3164 C.ar      1 GTP         0.4178
     26 C6         -3.4148   -4.4130   -0.1079 C.ar      1 GTP         0.2530
     27 O6         -4.4753   -4.6480   -0.6732 O.2       1 GTP        -0.2755
     28 N1         -2.4377   -5.3653    0.2144 N.pl3     1 GTP        -0.1604
     29 C2         -1.2132   -5.0902    0.8680 C.ar      1 GTP         0.4468
     30 N2         -0.4066   -6.1772    1.0834 N.pl3     1 GTP        -0.5618
     31 N3         -0.8672   -3.8786    1.2457 N.2       1 GTP        -0.4271
     32 C4         -1.7966   -2.9451    0.9439 C.ar      1 GTP         0.0498
     33 HOA2       -2.7276    5.5023    0.1931 H         1 GTP         0.2010
     34 H5'        -1.1757    2.0497    0.6364 H         1 GTP        -0.0393
     35 H5''       -0.2069    3.2809    1.4872 H         1 GTP        -0.0393
     36 H4'         0.0402    1.7079    3.4342 H         1 GTP        -0.0393
     37 H3'         1.5907    1.4859    1.1353 H         1 GTP        -0.0393
     38 HO3'        2.6839   -0.1150    2.2479 H         1 GTP         0.2010
     39 H2'        -0.0017    0.0018    0.0005 H         1 GTP        -0.0393
     40 HO2'        0.9369   -2.0558    0.0825 H         1 GTP         0.2010
     41 H1'        -0.1998   -1.6319    2.6178 H         1 GTP        -0.0393
     42 H8         -3.0589    0.0244    0.8247 H         1 GTP        -0.1369
     43 HN1        -2.6238   -6.3307   -0.0420 H         1 GTP         0.0865
     44 HN21        0.4646   -6.0341    1.5394 H         1 GTP         0.2048
     45 HN22       -0.7235   -7.0673    0.7753 H         1 GTP         0.2048
@<TRIPOS>BOND
     1    1    2 2
     2    1    3 1
     3    1    4 1
     4    1    5 1
     5    5    6 1
     6    6    7 2
     7    6    8 1
     8    6    9 1
     9    9   10 1
    10   10   11 2
    11   10   12 1
    12   10   13 1
    13   12   33 1
    14   13   14 1
    15   14   15 1
    16   14   34 1
    17   14   35 1
    18   15   16 1
    19   15   17 1
    20   15   36 1
    21   16   21 1
    22   17   18 1
    23   17   19 1
    24   17   37 1
    25   18   38 1
    26   19   20 1
    27   19   21 1
    28   19   39 1
    29   20   40 1
    30   21   22 1
    31   21   41 1
    32   22   23 ar
    33   22   32 ar
    34   23   24 ar
    35   23   42 1
    36   24   25 ar
    37   25   26 ar
    38   25   32 ar
    39   26   27 2
    40   26   28 ar
    41   28   29 ar
    42   28   43 1
    43   29   30 1
    44   29   31 ar
    45   30   44 1
    46   30   45 1
    47   31   32 ar
@<TRIPOS>SUBSTRUCTURE
     1 GTP         1 GROUP 0 A     ****
@<TRIPOS>MOLECULE
[[[5-(2-amino-6-oxo-1~{H}-purin-9-yl)-3,4-dihydroxy-tetrahydrofuran-2-yl]methoxy-hydroxy-phosphoryl]oxy-oxido-phosphoryl] phosphate
   45    47     1     0     0
SMALL
USER_CHARGES

@<TRIPOS>ATOM
      1 PG          3.3510    4.1616   -1.8075 P.3       1 GTP        -1.1921
      2 O1G         3.8178    2.9641   -2.6283 O.co2     1 GTP         0.3195
      3 O2G         4.2153    5.4079   -1.9642 O.co2     1 GTP         0.3195
      4 O3G         2.9970    3.8278   -0.3618 O.co2     1 GTP         0.3195
      5 O3B         1.9044    4.5786   -2.4777 O.3       1 GTP         0.4672
      6 PB          0.5121    3.7459   -2.6631 P.3       1 GTP        -1.1062
      7 O1B        -0.5479    4.6771   -3.2078 O.co2     1 GTP         0.3195
      8 O2B         0.8296    2.4394   -3.3566 O.co2     1 GTP         0.3195
      9 O3A         0.1812    3.4344   -1.0958 O.3       1 GTP         0.4672
     10 PA         -0.0721    4.4467    0.1409 P.3       1 GTP        -0.9715
     11 O1A         0.8341    5.6436    0.1482 O.2       1 GTP         0.2707
     12 O2A        -1.6506    4.7887    0.0480 O.3       1 GTP         0.0326
     13 O5'         0.0166    3.5128    1.4591 O.3       1 GTP         0.1618
     14 C5'        -0.8811    2.4285    1.6206 C.3       1 GTP         0.1504
     15 C4'        -0.1994    1.3333    2.4288 C.3       1 GTP         0.1111
     16 O4'        -1.1285    0.2356    2.5840 O.3       1 GTP        -0.1436
     17 C3'         1.0324    0.7610    1.7344 C.3       1 GTP         0.1111
     18 O3'         1.9175    0.2377    2.7247 O.3       1 GTP        -0.2728
     19 C2'         0.4468   -0.3802    0.9263 C.3       1 GTP         0.1111
     20 O2'         1.3993   -1.3703    0.5961 O.3       1 GTP        -0.2728
     21 C1'        -0.6159   -0.9100    1.8769 C.3       1 GTP         0.0918
     22 N9         -1.7127   -1.6108    1.2130 N.pl3     1 GTP        -0.0449
     23 C8         -1.7695   -2.9586    0.9546 C.ar      1 GTP         0.4884
     24 N7         -2.8846   -3.3047    0.3416 N.2       1 GTP        -0.5260
     25 C5         -3.5626   -2.1296    0.2052 C.ar      1 GTP         0.4178
     26 C6         -4.8477   -1.8989   -0.3942 C.ar      1 GTP         0.2530
     27 O6         -5.5373   -2.7819   -0.8881 O.2       1 GTP        -0.2755
     28 N1         -5.1895   -0.5407   -0.3318 N.pl3     1 GTP        -0.1604
     29 C2         -4.3899    0.4774    0.2398 C.ar      1 GTP         0.4468
     30 N2         -4.9233    1.7390    0.1898 N.pl3     1 GTP        -0.5618
     31 N3         -3.2159    0.2368    0.7822 N.2       1 GTP        -0.4271
     32 C4         -2.8678   -1.0679    0.7322 C.ar      1 GTP         0.0498
     33 HOA2       -1.9838    5.2838   -0.7305 H         1 GTP         0.2010
     34 H5'        -1.7777    2.7838    2.1390 H         1 GTP        -0.0393
     35 H5''       -1.1661    2.0530    0.6323 H         1 GTP        -0.0393
     36 H4'         0.0402    1.7079    3.4342 H         1 GTP        -0.0393
     37 H3'         1.5907    1.4859    1.1353 H         1 GTP        -0.0393
     38 HO3'        2.1521    0.9800    3.3017 H         1 GTP         0.2010
     39 H2'        -0.0017    0.0018    0.0005 H         1 GTP        -0.0393
     40 HO2'        0.9369   -2.0558    0.0825 H         1 GTP         0.2010
     41 H1'        -0.1998   -1.6319    2.6178 H         1 GTP        -0.0393
     42 H8         -0.9713   -3.6323    1.2352 H         1 GTP        -0.1369
     43 HN1        -6.0831   -0.2651   -0.7290 H         1 GTP         0.0865
     44 HN21       -4.3985    2.4878    0.5788 H         1 GTP         0.2048
     45 HN22       -5.8145    1.8572   -0.2335 H         1 GTP         0.2048
@<TRIPOS>BOND
     1    1    2 2
     2    1    3 1
     3    1    4 1
     4    1    5 1
     5    5    6 1
     6    6    7 2
     7    6    8 1
     8    6    9 1
     9    9   10 1
    10   10   11 2
    11   10   12 1
    12   10   13 1
    13   12   33 1
    14   13   14 1
    15   14   15 1
    16   14   34 1
    17   14   35 1
    18   15   16 1
    19   15   17 1
    20   15   36 1
    21   16   21 1
    22   17   18 1
    23   17   19 1
    24   17   37 1
    25   18   38 1
    26   19   20 1
    27   19   21 1
    28   19   39 1
    29   20   40 1
    30   21   22 1
    31   21   41 1
    32   22   23 ar
    33   22   32 ar
    34   23   24 ar
    35   23   42 1
    36   24   25 ar
    37   25   26 ar
    38   25   32 ar
    39   26   27 2
    40   26   28 ar
    41   28   29 ar
    42   28   43 1
    43   29   30 1
    44   29   31 ar
    45   30   44 1
    46   30   45 1
    47   31   32 ar
@<TRIPOS>SUBSTRUCTURE
     1 GTP         1 GROUP 0 A     ****
@<TRIPOS>MOLECULE
[[[5-(2-amino-6-oxo-1~{H}-purin-9-yl)-3,4-dihydroxy-tetrahydrofuran-2-yl]methoxy-hydroxy-phosphoryl]oxy-oxido-phosphoryl] phosphate
   45    47     1     0     0
SMALL
USER_CHARGES

@<TRIPOS>ATOM
      1 PG         -5.1061    6.5331   -0.1570 P.3       1 GTP        -1.1921
      2 O1G        -5.4802    5.0550   -0.1899 O.co2     1 GTP         0.3195
      3 O2G        -6.0215    7.3952    0.7055 O.co2     1 GTP         0.3195
      4 O3G        -4.7981    7.1299   -1.5265 O.co2     1 GTP         0.3195
      5 O3B        -3.6540    6.5708    0.6213 O.3       1 GTP         0.4672
      6 PB         -2.2170    5.8770    0.2751 P.3       1 GTP        -1.1062
      7 O1B        -1.8190    6.2504   -1.1355 O.co2     1 GTP         0.3195
      8 O2B        -1.2800    6.1215    1.4374 O.co2     1 GTP         0.3195
      9 O3A        -2.6701    4.3095    0.2947 O.3       1 GTP         0.4672
     10 PA         -3.3127    3.4213    1.4847 P.3       1 GTP        -0.9715
     11 O1A        -4.3354    4.1490    2.3084 O.2       1 GTP         0.2707
     12 O2A        -3.8613    2.0987    0.7316 O.3       1 GTP         0.0326
     13 O5'        -2.0394    2.8623    2.3117 O.3       1 GTP         0.1618
     14 C5'        -0.8811    2.4285    1.6206 C.3       1 GTP         0.1504
     15 C4'        -0.1994    1.3333    2.4288 C.3       1 GTP         0.1111
     16 O4'        -1.1285    0.2356    2.5840 O.3       1 GTP        -0.1436
     17 C3'         1.0324    0.7610    1.7344 C.3       1 GTP         0.1111
     18 O3'         1.9175    0.2377    2.7247 O.3       1 GTP        -0.2728
     19 C2'         0.4468   -0.3802    0.9263 C.3       1 GTP         0.1111
     20 O2'         1.3993   -1.3703    0.5961 O.3       1 GTP        -0.2728
     21 C1'        -0.6159   -0.9100    1.8769 C.3       1 GTP         0.0918
     22 N9         -1.7127   -1.6108    1.2130 N.pl3     1 GTP        -0.0449
     23 C8         -2.5489   -1.0812    0.2607 C.ar      1 GTP         0.4884
     24 N7         -3.4468   -1.9516   -0.1576 N.2       1 GTP        -0.5260
     25 C5         -3.1696   -3.0787    0.5579 C.ar      1 GTP         0.4178
     26 C6         -3.8307   -4.3536    0.5166 C.ar      1 GTP         0.2530
     27 O6         -4.7841   -4.6033   -0.2101 O.2       1 GTP        -0.2755
     28 N1         -3.2356   -5.2522    1.4132 N.pl3     1 GTP        -0.1604
     29 C2         -2.1338   -4.9602    2.2517 C.ar      1 GTP         0.4468
     30 N2         -1.7156   -5.9923    3.0507 N.pl3     1 GTP        -0.5618
     31 N3         -1.5477   -3.7827    2.2686 N.2       1 GTP        -0.4271
     32 C4         -2.1070   -2.9013    1.4104 C.ar      1 GTP         0.0498
     33 HOA2       -4.2293    1.3651    1.2688 H         1 GTP         0.2010
     34 H5'        -1.1757    2.0497    0.6364 H         1 GTP        -0.0393
     35 H5''       -0.2069    3.2809    1.4872 H         1 GTP        -0.0393
     36 H4'         0.0402    1.7079    3.4342 H         1 GTP        -0.0393
     37 H3'         1.5907    1.4859    1.1353 H         1 GTP        -0.0393
     38 HO3'        2.6839   -0.1150    2.2479 H         1 GTP         0.2010
     39 H2'        -0.0017    0.0018    0.0005 H         1 GTP        -0.0393
     40 HO2'        2.0953   -0.9375    0.0709 H         1 GTP         0.2010
     41 H1'        -0.1998   -1.6319    2.6178 H         1 GTP        -0.0393
     42 H8         -2.4545   -0.0604   -0.0844 H         1 GTP        -0.1369
     43 HN1        -3.6270   -6.1884    1.4651 H         1 GTP         0.0865
     44 HN21       -0.9445   -5.8354    3.6574 H         1 GTP         0.2048
     45 HN22       -2.1993   -6.8585    2.9930 H         1 GTP         0.2048
@<TRIPOS>BOND
     1    1    2 2
     2    1    3 1
     3    1    4 1
     4    1    5 1
     5    5    6 1
     6    6    7 2
     7    6    8 1
     8    6    9 1
     9    9   10 1
    10   10   11 2
    11   10   12 1
    12   10   13 1
    13   12   33 1
    14   13   14 1
    15   14   15 1
    16   14   34 1
    17   14   35 1
    18   15   16 1
    19   15   17 1
    20   15   36 1
    21   16   21 1
    22   17   18 1
    23   17   19 1
    24   17   37 1
    25   18   38 1
    26   19   20 1
    27   19   21 1
    28   19   39 1
    29   20   40 1
    30   21   22 1
    31   21   41 1
    32   22   23 ar
    33   22   32 ar
    34   23   24 ar
    35   23   42 1
    36   24   25 ar
    37   25   26 ar
    38   25   32 ar
    39   26   27 2
    40   26   28 ar
    41   28   29 ar
    42   28   43 1
    43   29   30 1
    44   29   31 ar
    45   30   44 1
    46   30   45 1
    47   31   32 ar
@<TRIPOS>SUBSTRUCTURE
     1 GTP         1 GROUP 0 A     ****
@<TRIPOS>MOLECULE
[[[5-(2-amino-6-oxo-1~{H}-purin-9-yl)-3,4-dihydroxy-tetrahydrofuran-2-yl]methoxy-hydroxy-phosphoryl]oxy-oxido-phosphoryl] phosphate
   45    47     1     0     0
SMALL
USER_CHARGES

@<TRIPOS>ATOM
      1 PG         -0.0263    7.1858   -0.1095 P.3       1 GTP        -1.1921
      2 O1G         0.5871    5.7907   -0.0536 O.co2     1 GTP         0.3195
      3 O2G        -0.7844    7.4893   -1.3972 O.co2     1 GTP         0.3195
      4 O3G         0.9154    8.3002    0.3354 O.co2     1 GTP         0.3195
      5 O3B        -1.1900    7.1685    1.0573 O.3       1 GTP         0.4672
      6 PB         -1.1108    6.9100    2.6676 P.3       1 GTP        -1.1062
      7 O1B         0.2883    7.2263    3.1472 O.co2     1 GTP         0.3195
      8 O2B        -2.3177    7.5560    3.3116 O.co2     1 GTP         0.3195
      9 O3A        -1.3176    5.2914    2.6847 O.3       1 GTP         0.4672
     10 PA         -2.5512    4.3890    2.1537 P.3       1 GTP        -0.9715
     11 O1A        -3.8625    4.6915    2.8192 O.2       1 GTP         0.2707
     12 O2A        -2.5345    4.6098    0.5511 O.3       1 GTP         0.0326
     13 O5'        -2.0394    2.8623    2.3117 O.3       1 GTP         0.1618
     14 C5'        -0.8811    2.4285    1.6206 C.3       1 GTP         0.1504
     15 C4'        -0.1994    1.3333    2.4288 C.3       1 GTP         0.1111
     16 O4'        -1.1285    0.2356    2.5840 O.3       1 GTP        -0.1436
     17 C3'         1.0324    0.7610    1.7344 C.3       1 GTP         0.1111
     18 O3'         1.9175    0.2377    2.7247 O.3       1 GTP        -0.2728
     19 C2'         0.4468   -0.3802    0.9263 C.3       1 GTP         0.1111
     20 O2'         1.3993   -1.3703    0.5961 O.3       1 GTP        -0.2728
     21 C1'        -0.6159   -0.9100    1.8769 C.3       1 GTP         0.0918
     22 N9         -1.7127   -1.6108    1.2130 N.pl3     1 GTP        -0.0449
     23 C8         -2.5489   -1.0812    0.2607 C.ar      1 GTP         0.4884
     24 N7         -3.4468   -1.9516   -0.1576 N.2       1 GTP        -0.5260
     25 C5         -3.1696   -3.0787    0.5579 C.ar      1 GTP         0.4178
     26 C6         -3.8307   -4.3536    0.5166 C.ar      1 GTP         0.2530
     27 O6         -4.7841   -4.6033   -0.2101 O.2       1 GTP        -0.2755
     28 N1         -3.2356   -5.2522    1.4132 N.pl3     1 GTP        -0.1604
     29 C2         -2.1338   -4.9602    2.2517 C.ar      1 GTP         0.4468
     30 N2         -1.7156   -5.9923    3.0507 N.pl3     1 GTP        -0.5618
     31 N3         -1.5477   -3.7827    2.2686 N.2       1 GTP        -0.4271
     32 C4         -2.1070   -2.9013    1.4104 C.ar      1 GTP         0.0498
     33 HOA2       -2.7276    5.5023    0.1931 H         1 GTP         0.2010
     34 H5'        -1.1757    2.0497    0.6364 H         1 GTP        -0.0393
     35 H5''       -0.2069    3.2809    1.4872 H         1 GTP        -0.0393
     36 H4'         0.0402    1.7079    3.4342 H         1 GTP        -0.0393
     37 H3'         1.5907    1.4859    1.1353 H         1 GTP        -0.0393
     38 HO3'        2.1521    0.9800    3.3017 H         1 GTP         0.2010
     39 H2'        -0.0017    0.0018    0.0005 H         1 GTP        -0.0393
     40 HO2'        2.0953   -0.9375    0.0709 H         1 GTP         0.2010
     41 H1'        -0.1998   -1.6319    2.6178 H         1 GTP        -0.0393
     42 H8         -2.4545   -0.0604   -0.0844 H         1 GTP        -0.1369
     43 HN1        -3.6270   -6.1884    1.4651 H         1 GTP         0.0865
     44 HN21       -0.9445   -5.8354    3.6574 H         1 GTP         0.2048
     45 HN22       -2.1993   -6.8585    2.9930 H         1 GTP         0.2048
@<TRIPOS>BOND
     1    1    2 2
     2    1    3 1
     3    1    4 1
     4    1    5 1
     5    5    6 1
     6    6    7 2
     7    6    8 1
     8    6    9 1
     9    9   10 1
    10   10   11 2
    11   10   12 1
    12   10   13 1
    13   12   33 1
    14   13   14 1
    15   14   15 1
    16   14   34 1
    17   14   35 1
    18   15   16 1
    19   15   17 1
    20   15   36 1
    21   16   21 1
    22   17   18 1
    23   17   19 1
    24   17   37 1
    25   18   38 1
    26   19   20 1
    27   19   21 1
    28   19   39 1
    29   20   40 1
    30   21   22 1
    31   21   41 1
    32   22   23 ar
    33   22   32 ar
    34   23   24 ar
    35   23   42 1
    36   24   25 ar
    37   25   26 ar
    38   25   32 ar
    39   26   27 2
    40   26   28 ar
    41   28   29 ar
    42   28   43 1
    43   29   30 1
    44   29   31 ar
    45   30   44 1
    46   30   45 1
    47   31   32 ar
@<TRIPOS>SUBSTRUCTURE
     1 GTP         1 GROUP 0 A     ****
@<TRIPOS>MOLECULE
[[[5-(2-amino-6-oxo-1~{H}-purin-9-yl)-3,4-dihydroxy-tetrahydrofuran-2-yl]methoxy-hydroxy-phosphoryl]oxy-oxido-phosphoryl] phosphate
   45    47     1     0     0
SMALL
USER_CHARGES

@<TRIPOS>ATOM
      1 PG         -0.0855    6.9835   -2.6540 P.3       1 GTP        -1.1921
      2 O1G        -1.0310    7.1504   -1.4692 O.co2     1 GTP         0.3195
      3 O2G         1.0189    8.0320   -2.7309 O.co2     1 GTP         0.3195
      4 O3G        -0.7887    6.7220   -3.9821 O.co2     1 GTP         0.3195
      5 O3B         0.7091    5.5725   -2.3481 O.3       1 GTP         0.4672
      6 PB          0.1709    4.0449   -2.1411 P.3       1 GTP        -1.1062
      7 O1B        -0.6887    3.6626   -3.3254 O.co2     1 GTP         0.3195
      8 O2B         1.3405    3.1830   -1.7193 O.co2     1 GTP         0.3195
      9 O3A        -0.7944    4.2793   -0.8464 O.3       1 GTP         0.4672
     10 PA         -0.4427    4.8271    0.6349 P.3       1 GTP        -0.9715
     11 O1A         0.5394    5.9624    0.6510 O.2       1 GTP         0.2707
     12 O2A        -1.8876    5.1681    1.2779 O.3       1 GTP         0.0326
     13 O5'         0.0166    3.5128    1.4591 O.3       1 GTP         0.1618
     14 C5'        -0.8811    2.4285    1.6206 C.3       1 GTP         0.1504
     15 C4'        -0.1994    1.3333    2.4288 C.3       1 GTP         0.1111
     16 O4'        -1.1285    0.2356    2.5840 O.3       1 GTP        -0.1436
     17 C3'         1.0324    0.7610    1.7344 C.3       1 GTP         0.1111
     18 O3'         1.9175    0.2377    2.7247 O.3       1 GTP        -0.2728
     19 C2'         0.4468   -0.3802    0.9263 C.3       1 GTP         0.1111
     20 O2'         1.3993   -1.3703    0.5961 O.3       1 GTP        -0.2728
     21 C1'        -0.6159   -0.9100    1.8769 C.3       1 GTP         0.0918
     22 N9         -1.7127   -1.6108    1.2130 N.pl3     1 GTP        -0.0449
     23 C8         -2.5489   -1.0812    0.2607 C.ar      1 GTP         0.4884
     24 N7         -3.4468   -1.9516   -0.1576 N.2       1 GTP        -0.5260
     25 C5         -3.1696   -3.0787    0.5579 C.ar      1 GTP         0.4178
     26 C6         -3.8307   -4.3536    0.5166 C.ar      1 GTP         0.2530
     27 O6         -4.7841   -4.6033   -0.2101 O.2       1 GTP        -0.2755
     28 N1         -3.2356   -5.2522    1.4132 N.pl3     1 GTP        -0.1604
     29 C2         -2.1338   -4.9602    2.2517 C.ar      1 GTP         0.4468
     30 N2         -1.7156   -5.9923    3.0507 N.pl3     1 GTP        -0.5618
     31 N3         -1.5477   -3.7827    2.2686 N.2       1 GTP        -0.4271
     32 C4         -2.1070   -2.9013    1.4104 C.ar      1 GTP         0.0498
     33 HOA2       -1.9352    5.4469    2.2171 H         1 GTP         0.2010
     34 H5'        -1.7777    2.7838    2.1390 H         1 GTP        -0.0393
     35 H5''       -1.1661    2.0530    0.6323 H         1 GTP        -0.0393
     36 H4'         0.0402    1.7079    3.4342 H         1 GTP        -0.0393
     37 H3'         1.5907    1.4859    1.1353 H         1 GTP        -0.0393
     38 HO3'        2.6839   -0.1150    2.2479 H         1 GTP         0.2010
     39 H2'        -0.0017    0.0018    0.0005 H         1 GTP        -0.0393
     40 HO2'        2.0953   -0.9375    0.0709 H         1 GTP         0.2010
     41 H1'        -0.1998   -1.6319    2.6178 H         1 GTP        -0.0393
     42 H8         -2.4545   -0.0604   -0.0844 H         1 GTP        -0.1369
     43 HN1        -3.6270   -6.1884    1.4651 H         1 GTP         0.0865
     44 HN21       -0.9445   -5.8354    3.6574 H         1 GTP         0.2048
     45 HN22       -2.1993   -6.8585    2.9930 H         1 GTP         0.2048
@<TRIPOS>BOND
     1    1    2 2
     2    1    3 1
     3    1    4 1
     4    1    5 1
     5    5    6 1
     6    6    7 2
     7    6    8 1
     8    6    9 1
     9    9   10 1
    10   10   11 2
    11   10   12 1
    12   10   13 1
    13   12   33 1
    14   13   14 1
    15   14   15 1
    16   14   34 1
    17   14   35 1
    18   15   16 1
    19   15   17 1
    20   15   36 1
    21   16   21 1
    22   17   18 1
    23   17   19 1
    24   17   37 1
    25   18   38 1
    26   19   20 1
    27   19   21 1
    28   19   39 1
    29   20   40 1
    30   21   22 1
    31   21   41 1
    32   22   23 ar
    33   22   32 ar
    34   23   24 ar
    35   23   42 1
    36   24   25 ar
    37   25   26 ar
    38   25   32 ar
    39   26   27 2
    40   26   28 ar
    41   28   29 ar
    42   28   43 1
    43   29   30 1
    44   29   31 ar
    45   30   44 1
    46   30   45 1
    47   31   32 ar
@<TRIPOS>SUBSTRUCTURE
     1 GTP         1 GROUP 0 A     ****
@<TRIPOS>MOLECULE
[[[5-(2-amino-6-oxo-1~{H}-purin-9-yl)-3,4-dihydroxy-tetrahydrofuran-2-yl]methoxy-hydroxy-phosphoryl]oxy-oxido-phosphoryl] phosphate
   45    47     1     0     0
SMALL
USER_CHARGES

@<TRIPOS>ATOM
      1 PG          3.3510    4.1616   -1.8075 P.3       1 GTP        -1.1921
      2 O1G         3.8178    2.9641   -2.6283 O.co2     1 GTP         0.3195
      3 O2G         4.2153    5.4079   -1.9642 O.co2     1 GTP         0.3195
      4 O3G         2.9970    3.8278   -0.3618 O.co2     1 GTP         0.3195
      5 O3B         1.9044    4.5786   -2.4777 O.3       1 GTP         0.4672
      6 PB          0.5121    3.7459   -2.6631 P.3       1 GTP        -1.1062
      7 O1B        -0.5479    4.6771   -3.2078 O.co2     1 GTP         0.3195
      8 O2B         0.8296    2.4394   -3.3566 O.co2     1 GTP         0.3195
      9 O3A         0.1812    3.4344   -1.0958 O.3       1 GTP         0.4672
     10 PA         -0.0721    4.4467    0.1409 P.3       1 GTP        -0.9715
     11 O1A         0.8341    5.6436    0.1482 O.2       1 GTP         0.2707
     12 O2A        -1.6506    4.7887    0.0480 O.3       1 GTP         0.0326
     13 O5'         0.0166    3.5128    1.4591 O.3       1 GTP         0.1618
     14 C5'        -0.8811    2.4285    1.6206 C.3       1 GTP         0.1504
     15 C4'        -0.1994    1.3333    2.4288 C.3       1 GTP         0.1111
     16 O4'        -1.1285    0.2356    2.5840 O.3       1 GTP        -0.1436
     17 C3'         1.0324    0.7610    1.7344 C.3       1 GTP         0.1111
     18 O3'         1.9175    0.2377    2.7247 O.3       1 GTP        -0.2728
     19 C2'         0.4468   -0.3802    0.9263 C.3       1 GTP         0.1111
     20 O2'         1.3993   -1.3703    0.5961 O.3       1 GTP        -0.2728
     21 C1'        -0.6159   -0.9100    1.8769 C.3       1 GTP         0.0918
     22 N9         -1.7127   -1.6108    1.2130 N.pl3     1 GTP        -0.0449
     23 C8         -2.5489   -1.0812    0.2607 C.ar      1 GTP         0.4884
     24 N7         -3.4468   -1.9516   -0.1576 N.2       1 GTP        -0.5260
     25 C5         -3.1696   -3.0787    0.5579 C.ar      1 GTP         0.4178
     26 C6         -3.8307   -4.3536    0.5166 C.ar      1 GTP         0.2530
     27 O6         -4.7841   -4.6033   -0.2101 O.2       1 GTP        -0.2755
     28 N1         -3.2356   -5.2522    1.4132 N.pl3     1 GTP        -0.1604
     29 C2         -2.1338   -4.9602    2.2517 C.ar      1 GTP         0.4468
     30 N2         -1.7156   -5.9923    3.0507 N.pl3     1 GTP        -0.5618
     31 N3         -1.5477   -3.7827    2.2686 N.2       1 GTP        -0.4271
     32 C4         -2.1070   -2.9013    1.4104 C.ar      1 GTP         0.0498
     33 HOA2       -1.9838    5.2838   -0.7305 H         1 GTP         0.2010
     34 H5'        -1.7777    2.7838    2.1390 H         1 GTP        -0.0393
     35 H5''       -1.1661    2.0530    0.6323 H         1 GTP        -0.0393
     36 H4'         0.0402    1.7079    3.4342 H         1 GTP        -0.0393
     37 H3'         1.5907    1.4859    1.1353 H         1 GTP        -0.0393
     38 HO3'        2.6839   -0.1150    2.2479 H         1 GTP         0.2010
     39 H2'        -0.0017    0.0018    0.0005 H         1 GTP        -0.0393
     40 HO2'        2.0953   -0.9375    0.0709 H         1 GTP         0.2010
     41 H1'        -0.1998   -1.6319    2.6178 H         1 GTP        -0.0393
     42 H8         -2.4545   -0.0604   -0.0844 H         1 GTP        -0.1369
     43 HN1        -3.6270   -6.1884    1.4651 H         1 GTP         0.0865
     44 HN21       -0.9445   -5.8354    3.6574 H         1 GTP         0.2048
     45 HN22       -2.1993   -6.8585    2.9930 H         1 GTP         0.2048
@<TRIPOS>BOND
     1    1    2 2
     2    1    3 1
     3    1    4 1
     4    1    5 1
     5    5    6 1
     6    6    7 2
     7    6    8 1
     8    6    9 1
     9    9   10 1
    10   10   11 2
    11   10   12 1
    12   10   13 1
    13   12   33 1
    14   13   14 1
    15   14   15 1
    16   14   34 1
    17   14   35 1
    18   15   16 1
    19   15   17 1
    20   15   36 1
    21   16   21 1
    22   17   18 1
    23   17   19 1
    24   17   37 1
    25   18   38 1
    26   19   20 1
    27   19   21 1
    28   19   39 1
    29   20   40 1
    30   21   22 1
    31   21   41 1
    32   22   23 ar
    33   22   32 ar
    34   23   24 ar
    35   23   42 1
    36   24   25 ar
    37   25   26 ar
    38   25   32 ar
    39   26   27 2
    40   26   28 ar
    41   28   29 ar
    42   28   43 1
    43   29   30 1
    44   29   31 ar
    45   30   44 1
    46   30   45 1
    47   31   32 ar
@<TRIPOS>SUBSTRUCTURE
     1 GTP         1 GROUP 0 A     ****
@<TRIPOS>MOLECULE
[[[5-(2-amino-6-oxo-1~{H}-purin-9-yl)-3,4-dihydroxy-tetrahydrofuran-2-yl]methoxy-hydroxy-phosphoryl]oxy-oxido-phosphoryl] phosphate
   45    47     1     0     0
SMALL
USER_CHARGES

@<TRIPOS>ATOM
      1 PG         -1.9360    6.4346   -3.4295 P.3       1 GTP        -1.1921
      2 O1G        -3.2984    5.9712   -3.9341 O.co2     1 GTP         0.3195
      3 O2G        -1.7728    7.9489   -3.3577 O.co2     1 GTP         0.3195
      4 O3G        -0.7545    5.7112   -4.0678 O.co2     1 GTP         0.3195
      5 O3B        -1.8925    5.9423   -1.8573 O.3       1 GTP         0.4672
      6 PB         -2.0067    4.4617   -1.1785 P.3       1 GTP        -1.1062
      7 O1B        -3.3985    3.9191   -1.4155 O.co2     1 GTP         0.3195
      8 O2B        -0.7839    3.6633   -1.5734 O.co2     1 GTP         0.3195
      9 O3A        -1.8678    4.8810    0.3924 O.3       1 GTP         0.4672
     10 PA         -0.5530    5.0212    1.3251 P.3       1 GTP        -0.9715
     11 O1A         0.4406    6.0342    0.8349 O.2       1 GTP         0.2707
     12 O2A        -1.1505    5.3124    2.8001 O.3       1 GTP         0.0326
     13 O5'         0.0166    3.5128    1.4591 O.3       1 GTP         0.1618
     14 C5'        -0.8811    2.4285    1.6206 C.3       1 GTP         0.1504
     15 C4'        -0.1994    1.3333    2.4288 C.3       1 GTP         0.1111
     16 O4'        -1.1285    0.2356    2.5840 O.3       1 GTP        -0.1436
     17 C3'         1.0324    0.7610    1.7344 C.3       1 GTP         0.1111
     18 O3'         1.9175    0.2377    2.7247 O.3       1 GTP        -0.2728
     19 C2'         0.4468   -0.3802    0.9263 C.3       1 GTP         0.1111
     20 O2'         1.3993   -1.3703    0.5961 O.3       1 GTP        -0.2728
     21 C1'        -0.6159   -0.9100    1.8769 C.3       1 GTP         0.0918
     22 N9         -1.7127   -1.6108    1.2130 N.pl3     1 GTP        -0.0449
     23 C8         -1.7695   -2.9586    0.9546 C.ar      1 GTP         0.4884
     24 N7         -2.8846   -3.3047    0.3416 N.2       1 GTP        -0.5260
     25 C5         -3.5626   -2.1296    0.2052 C.ar      1 GTP         0.4178
     26 C6         -4.8477   -1.8989   -0.3942 C.ar      1 GTP         0.2530
     27 O6         -5.5373   -2.7819   -0.8881 O.2       1 GTP        -0.2755
     28 N1         -5.1895   -0.5407   -0.3318 N.pl3     1 GTP        -0.1604
     29 C2         -4.3899    0.4774    0.2398 C.ar      1 GTP         0.4468
     30 N2         -4.9233    1.7390    0.1898 N.pl3     1 GTP        -0.5618
     31 N3         -3.2159    0.2368    0.7822 N.2       1 GTP        -0.4271
     32 C4         -2.8678   -1.0679    0.7322 C.ar      1 GTP         0.0498
     33 HOA2       -0.5338    5.3572    3.5615 H         1 GTP         0.2010
     34 H5'        -1.7777    2.7838    2.1390 H         1 GTP        -0.0393
     35 H5''       -1.1661    2.0530    0.6323 H         1 GTP        -0.0393
     36 H4'         0.0402    1.7079    3.4342 H         1 GTP        -0.0393
     37 H3'         1.5907    1.4859    1.1353 H         1 GTP        -0.0393
     38 HO3'        2.6839   -0.1150    2.2479 H         1 GTP         0.2010
     39 H2'        -0.0017    0.0018    0.0005 H         1 GTP        -0.0393
     40 HO2'        2.0953   -0.9375    0.0709 H         1 GTP         0.2010
     41 H1'        -0.1998   -1.6319    2.6178 H         1 GTP        -0.0393
     42 H8         -0.9713   -3.6323    1.2352 H         1 GTP        -0.1369
     43 HN1        -6.0831   -0.2651   -0.7290 H         1 GTP         0.0865
     44 HN21       -4.3985    2.4878    0.5788 H         1 GTP         0.2048
     45 HN22       -5.8145    1.8572   -0.2335 H         1 GTP         0.2048
@<TRIPOS>BOND
     1    1    2 2
     2    1    3 1
     3    1    4 1
     4    1    5 1
     5    5    6 1
     6    6    7 2
     7    6    8 1
     8    6    9 1
     9    9   10 1
    10   10   11 2
    11   10   12 1
    12   10   13 1
    13   12   33 1
    14   13   14 1
    15   14   15 1
    16   14   34 1
    17   14   35 1
    18   15   16 1
    19   15   17 1
    20   15   36 1
    21   16   21 1
    22   17   18 1
    23   17   19 1
    24   17   37 1
    25   18   38 1
    26   19   20 1
    27   19   21 1
    28   19   39 1
    29   20   40 1
    30   21   22 1
    31   21   41 1
    32   22   23 ar
    33   22   32 ar
    34   23   24 ar
    35   23   42 1
    36   24   25 ar
    37   25   26 ar
    38   25   32 ar
    39   26   27 2
    40   26   28 ar
    41   28   29 ar
    42   28   43 1
    43   29   30 1
    44   29   31 ar
    45   30   44 1
    46   30   45 1
    47   31   32 ar
@<TRIPOS>SUBSTRUCTURE
     1 GTP         1 GROUP 0 A     ****
@<TRIPOS>MOLECULE
[[[5-(2-amino-6-oxo-1~{H}-purin-9-yl)-3,4-dihydroxy-tetrahydrofuran-2-yl]methoxy-hydroxy-phosphoryl]oxy-oxido-phosphoryl] phosphate
   45    47     1     0     0
SMALL
USER_CHARGES

@<TRIPOS>ATOM
      1 PG         -1.9360    6.4346   -3.4295 P.3       1 GTP        -1.1921
      2 O1G        -3.2984    5.9712   -3.9341 O.co2     1 GTP         0.3195
      3 O2G        -1.7728    7.9489   -3.3577 O.co2     1 GTP         0.3195
      4 O3G        -0.7545    5.7112   -4.0678 O.co2     1 GTP         0.3195
      5 O3B        -1.8925    5.9423   -1.8573 O.3       1 GTP         0.4672
      6 PB         -2.0067    4.4617   -1.1785 P.3       1 GTP        -1.1062
      7 O1B        -3.3985    3.9191   -1.4155 O.co2     1 GTP         0.3195
      8 O2B        -0.7839    3.6633   -1.5734 O.co2     1 GTP         0.3195
      9 O3A        -1.8678    4.8810    0.3924 O.3       1 GTP         0.4672
     10 PA         -0.5530    5.0212    1.3251 P.3       1 GTP        -0.9715
     11 O1A         0.4406    6.0342    0.8349 O.2       1 GTP         0.2707
     12 O2A        -1.1505    5.3124    2.8001 O.3       1 GTP         0.0326
     13 O5'         0.0166    3.5128    1.4591 O.3       1 GTP         0.1618
     14 C5'        -0.8811    2.4285    1.6206 C.3       1 GTP         0.1504
     15 C4'        -0.1994    1.3333    2.4288 C.3       1 GTP         0.1111
     16 O4'        -1.1285    0.2356    2.5840 O.3       1 GTP        -0.1436
     17 C3'         1.0324    0.7610    1.7344 C.3       1 GTP         0.1111
     18 O3'         1.9175    0.2377    2.7247 O.3       1 GTP        -0.2728
     19 C2'         0.4468   -0.3802    0.9263 C.3       1 GTP         0.1111
     20 O2'         1.3993   -1.3703    0.5961 O.3       1 GTP        -0.2728
     21 C1'        -0.6159   -0.9100    1.8769 C.3       1 GTP         0.0918
     22 N9         -1.7127   -1.6108    1.2130 N.pl3     1 GTP        -0.0449
     23 C8         -2.8667   -1.0365    0.7385 C.ar      1 GTP         0.4884
     24 N7         -3.6757   -1.9196    0.1868 N.2       1 GTP        -0.5260
     25 C5         -3.0088   -3.1018    0.3164 C.ar      1 GTP         0.4178
     26 C6         -3.4148   -4.4130   -0.1079 C.ar      1 GTP         0.2530
     27 O6         -4.4753   -4.6480   -0.6732 O.2       1 GTP        -0.2755
     28 N1         -2.4377   -5.3653    0.2144 N.pl3     1 GTP        -0.1604
     29 C2         -1.2132   -5.0902    0.8680 C.ar      1 GTP         0.4468
     30 N2         -0.4066   -6.1772    1.0834 N.pl3     1 GTP        -0.5618
     31 N3         -0.8672   -3.8786    1.2457 N.2       1 GTP        -0.4271
     32 C4         -1.7966   -2.9451    0.9439 C.ar      1 GTP         0.0498
     33 HOA2       -0.5338    5.3572    3.5615 H         1 GTP         0.2010
     34 H5'        -1.7777    2.7838    2.1390 H         1 GTP        -0.0393
     35 H5''       -1.1661    2.0530    0.6323 H         1 GTP        -0.0393
     36 H4'         0.0402    1.7079    3.4342 H         1 GTP        -0.0393
     37 H3'         1.5907    1.4859    1.1353 H         1 GTP        -0.0393
     38 HO3'        2.6839   -0.1150    2.2479 H         1 GTP         0.2010
     39 H2'        -0.0017    0.0018    0.0005 H         1 GTP        -0.0393
     40 HO2'        2.0953   -0.9375    0.0709 H         1 GTP         0.2010
     41 H1'        -0.1998   -1.6319    2.6178 H         1 GTP        -0.0393
     42 H8         -3.0589    0.0244    0.8247 H         1 GTP        -0.1369
     43 HN1        -2.6238   -6.3307   -0.0420 H         1 GTP         0.0865
     44 HN21        0.4646   -6.0341    1.5394 H         1 GTP         0.2048
     45 HN22       -0.7235   -7.0673    0.7753 H         1 GTP         0.2048
@<TRIPOS>BOND
     1    1    2 2
     2    1    3 1
     3    1    4 1
     4    1    5 1
     5    5    6 1
     6    6    7 2
     7    6    8 1
     8    6    9 1
     9    9   10 1
    10   10   11 2
    11   10   12 1
    12   10   13 1
    13   12   33 1
    14   13   14 1
    15   14   15 1
    16   14   34 1
    17   14   35 1
    18   15   16 1
    19   15   17 1
    20   15   36 1
    21   16   21 1
    22   17   18 1
    23   17   19 1
    24   17   37 1
    25   18   38 1
    26   19   20 1
    27   19   21 1
    28   19   39 1
    29   20   40 1
    30   21   22 1
    31   21   41 1
    32   22   23 ar
    33   22   32 ar
    34   23   24 ar
    35   23   42 1
    36   24   25 ar
    37   25   26 ar
    38   25   32 ar
    39   26   27 2
    40   26   28 ar
    41   28   29 ar
    42   28   43 1
    43   29   30 1
    44   29   31 ar
    45   30   44 1
    46   30   45 1
    47   31   32 ar
@<TRIPOS>SUBSTRUCTURE
     1 GTP         1 GROUP 0 A     ****
@<TRIPOS>MOLECULE
[[[5-(2-amino-6-oxo-1~{H}-purin-9-yl)-3,4-dihydroxy-tetrahydrofuran-2-yl]methoxy-hydroxy-phosphoryl]oxy-oxido-phosphoryl] phosphate
   45    47     1     0     0
SMALL
USER_CHARGES

@<TRIPOS>ATOM
      1 PG          0.9371    6.3799    0.6717 P.3       1 GTP        -1.1921
      2 O1G         0.7257    7.8892    0.6166 O.co2     1 GTP         0.3195
      3 O2G         1.7411    5.9002    1.8752 O.co2     1 GTP         0.3195
      4 O3G         1.3716    5.7615   -0.6532 O.co2     1 GTP         0.3195
      5 O3B        -0.5719    5.7637    0.9144 O.3       1 GTP         0.4672
      6 PB         -1.9437    5.8702    0.0353 P.3       1 GTP        -1.1062
      7 O1B        -2.7976    6.9879    0.5915 O.co2     1 GTP         0.3195
      8 O2B        -1.5718    5.8322   -1.4306 O.co2     1 GTP         0.3195
      9 O3A        -2.6241    4.4418    0.4352 O.3       1 GTP         0.4672
     10 PA         -3.0699    3.8636    1.8791 P.3       1 GTP        -0.9715
     11 O1A        -3.7108    4.8828    2.7759 O.2       1 GTP         0.2707
     12 O2A        -4.0026    2.5917    1.5188 O.3       1 GTP         0.0326
     13 O5'        -1.7333    3.1724    2.4738 O.3       1 GTP         0.1618
     14 C5'        -0.8811    2.4285    1.6206 C.3       1 GTP         0.1504
     15 C4'        -0.1994    1.3333    2.4288 C.3       1 GTP         0.1111
     16 O4'        -1.1285    0.2356    2.5840 O.3       1 GTP        -0.1436
     17 C3'         1.0324    0.7610    1.7344 C.3       1 GTP         0.1111
     18 O3'         1.9175    0.2377    2.7247 O.3       1 GTP        -0.2728
     19 C2'         0.4468   -0.3802    0.9263 C.3       1 GTP         0.1111
     20 O2'         1.3993   -1.3703    0.5961 O.3       1 GTP        -0.2728
     21 C1'        -0.6159   -0.9100    1.8769 C.3       1 GTP         0.0918
     22 N9         -1.7127   -1.6108    1.2130 N.pl3     1 GTP        -0.0449
     23 C8         -2.8667   -1.0365    0.7385 C.ar      1 GTP         0.4884
     24 N7         -3.6757   -1.9196    0.1868 N.2       1 GTP        -0.5260
     25 C5         -3.0088   -3.1018    0.3164 C.ar      1 GTP         0.4178
     26 C6         -3.4148   -4.4130   -0.1079 C.ar      1 GTP         0.2530
     27 O6         -4.4753   -4.6480   -0.6732 O.2       1 GTP        -0.2755
     28 N1         -2.4377   -5.3653    0.2144 N.pl3     1 GTP        -0.1604
     29 C2         -1.2132   -5.0902    0.8680 C.ar      1 GTP         0.4468
     30 N2         -0.4066   -6.1772    1.0834 N.pl3     1 GTP        -0.5618
     31 N3         -0.8672   -3.8786    1.2457 N.2       1 GTP        -0.4271
     32 C4         -1.7966   -2.9451    0.9439 C.ar      1 GTP         0.0498
     33 HOA2       -4.3319    2.0233    2.2473 H         1 GTP         0.2010
     34 H5'        -1.4792    1.9919    0.8140 H         1 GTP        -0.0393
     35 H5''       -0.1359    3.1032    1.1865 H         1 GTP        -0.0393
     36 H4'         0.0402    1.7079    3.4342 H         1 GTP        -0.0393
     37 H3'         1.5907    1.4859    1.1353 H         1 GTP        -0.0393
     38 HO3'        2.1521    0.9800    3.3017 H         1 GTP         0.2010
     39 H2'        -0.0017    0.0018    0.0005 H         1 GTP        -0.0393
     40 HO2'        0.9369   -2.0558    0.0825 H         1 GTP         0.2010
     41 H1'        -0.1998   -1.6319    2.6178 H         1 GTP        -0.0393
     42 H8         -3.0589    0.0244    0.8247 H         1 GTP        -0.1369
     43 HN1        -2.6238   -6.3307   -0.0420 H         1 GTP         0.0865
     44 HN21        0.4646   -6.0341    1.5394 H         1 GTP         0.2048
     45 HN22       -0.7235   -7.0673    0.7753 H         1 GTP         0.2048
@<TRIPOS>BOND
     1    1    2 2
     2    1    3 1
     3    1    4 1
     4    1    5 1
     5    5    6 1
     6    6    7 2
     7    6    8 1
     8    6    9 1
     9    9   10 1
    10   10   11 2
    11   10   12 1
    12   10   13 1
    13   12   33 1
    14   13   14 1
    15   14   15 1
    16   14   34 1
    17   14   35 1
    18   15   16 1
    19   15   17 1
    20   15   36 1
    21   16   21 1
    22   17   18 1
    23   17   19 1
    24   17   37 1
    25   18   38 1
    26   19   20 1
    27   19   21 1
    28   19   39 1
    29   20   40 1
    30   21   22 1
    31   21   41 1
    32   22   23 ar
    33   22   32 ar
    34   23   24 ar
    35   23   42 1
    36   24   25 ar
    37   25   26 ar
    38   25   32 ar
    39   26   27 2
    40   26   28 ar
    41   28   29 ar
    42   28   43 1
    43   29   30 1
    44   29   31 ar
    45   30   44 1
    46   30   45 1
    47   31   32 ar
@<TRIPOS>SUBSTRUCTURE
     1 GTP         1 GROUP 0 A     ****
@<TRIPOS>MOLECULE
[[[5-(2-amino-6-oxo-1~{H}-purin-9-yl)-3,4-dihydroxy-tetrahydrofuran-2-yl]methoxy-hydroxy-phosphoryl]oxy-oxido-phosphoryl] phosphate
   45    47     1     0     0
SMALL
USER_CHARGES

@<TRIPOS>ATOM
      1 PG         -4.2148    7.5762    0.3700 P.3       1 GTP        -1.1921
      2 O1G        -3.9080    8.3920   -0.8814 O.co2     1 GTP         0.3195
      3 O2G        -5.5514    7.9068    1.0252 O.co2     1 GTP         0.3195
      4 O3G        -3.0502    7.4738    1.3497 O.co2     1 GTP         0.3195
      5 O3B        -4.3985    6.0341   -0.1813 O.3       1 GTP         0.4672
      6 PB         -3.3819    5.0373   -0.9807 P.3       1 GTP        -1.1062
      7 O1B        -4.1950    4.0093   -1.7354 O.co2     1 GTP         0.3195
      8 O2B        -2.3481    5.8838   -1.6902 O.co2     1 GTP         0.3195
      9 O3A        -2.6701    4.3095    0.2947 O.3       1 GTP         0.4672
     10 PA         -3.3127    3.4213    1.4847 P.3       1 GTP        -0.9715
     11 O1A        -4.3354    4.1490    2.3084 O.2       1 GTP         0.2707
     12 O2A        -3.8613    2.0987    0.7316 O.3       1 GTP         0.0326
     13 O5'        -2.0394    2.8623    2.3117 O.3       1 GTP         0.1618
     14 C5'        -0.8811    2.4285    1.6206 C.3       1 GTP         0.1504
     15 C4'        -0.1994    1.3333    2.4288 C.3       1 GTP         0.1111
     16 O4'        -1.1285    0.2356    2.5840 O.3       1 GTP        -0.1436
     17 C3'         1.0324    0.7610    1.7344 C.3       1 GTP         0.1111
     18 O3'         1.9175    0.2377    2.7247 O.3       1 GTP        -0.2728
     19 C2'         0.4468   -0.3802    0.9263 C.3       1 GTP         0.1111
     20 O2'         1.3993   -1.3703    0.5961 O.3       1 GTP        -0.2728
     21 C1'        -0.6159   -0.9100    1.8769 C.3       1 GTP         0.0918
     22 N9         -1.7127   -1.6108    1.2130 N.pl3     1 GTP        -0.0449
     23 C8         -2.5489   -1.0812    0.2607 C.ar      1 GTP         0.4884
     24 N7         -3.4468   -1.9516   -0.1576 N.2       1 GTP        -0.5260
     25 C5         -3.1696   -3.0787    0.5579 C.ar      1 GTP         0.4178
     26 C6         -3.8307   -4.3536    0.5166 C.ar      1 GTP         0.2530
     27 O6         -4.7841   -4.6033   -0.2101 O.2       1 GTP        -0.2755
     28 N1         -3.2356   -5.2522    1.4132 N.pl3     1 GTP        -0.1604
     29 C2         -2.1338   -4.9602    2.2517 C.ar      1 GTP         0.4468
     30 N2         -1.7156   -5.9923    3.0507 N.pl3     1 GTP        -0.5618
     31 N3         -1.5477   -3.7827    2.2686 N.2       1 GTP        -0.4271
     32 C4         -2.1070   -2.9013    1.4104 C.ar      1 GTP         0.0498
     33 HOA2       -4.5947    2.1897    0.0867 H         1 GTP         0.2010
     34 H5'        -1.1757    2.0497    0.6364 H         1 GTP        -0.0393
     35 H5''       -0.2069    3.2809    1.4872 H         1 GTP        -0.0393
     36 H4'         0.0402    1.7079    3.4342 H         1 GTP        -0.0393
     37 H3'         1.5907    1.4859    1.1353 H         1 GTP        -0.0393
     38 HO3'        2.1521    0.9800    3.3017 H         1 GTP         0.2010
     39 H2'        -0.0017    0.0018    0.0005 H         1 GTP        -0.0393
     40 HO2'        2.0953   -0.9375    0.0709 H         1 GTP         0.2010
     41 H1'        -0.1998   -1.6319    2.6178 H         1 GTP        -0.0393
     42 H8         -2.4545   -0.0604   -0.0844 H         1 GTP        -0.1369
     43 HN1        -3.6270   -6.1884    1.4651 H         1 GTP         0.0865
     44 HN21       -0.9445   -5.8354    3.6574 H         1 GTP         0.2048
     45 HN22       -2.1993   -6.8585    2.9930 H         1 GTP         0.2048
@<TRIPOS>BOND
     1    1    2 2
     2    1    3 1
     3    1    4 1
     4    1    5 1
     5    5    6 1
     6    6    7 2
     7    6    8 1
     8    6    9 1
     9    9   10 1
    10   10   11 2
    11   10   12 1
    12   10   13 1
    13   12   33 1
    14   13   14 1
    15   14   15 1
    16   14   34 1
    17   14   35 1
    18   15   16 1
    19   15   17 1
    20   15   36 1
    21   16   21 1
    22   17   18 1
    23   17   19 1
    24   17   37 1
    25   18   38 1
    26   19   20 1
    27   19   21 1
    28   19   39 1
    29   20   40 1
    30   21   22 1
    31   21   41 1
    32   22   23 ar
    33   22   32 ar
    34   23   24 ar
    35   23   42 1
    36   24   25 ar
    37   25   26 ar
    38   25   32 ar
    39   26   27 2
    40   26   28 ar
    41   28   29 ar
    42   28   43 1
    43   29   30 1
    44   29   31 ar
    45   30   44 1
    46   30   45 1
    47   31   32 ar
@<TRIPOS>SUBSTRUCTURE
     1 GTP         1 GROUP 0 A     ****
@<TRIPOS>MOLECULE
[[[5-(2-amino-6-oxo-1~{H}-purin-9-yl)-3,4-dihydroxy-tetrahydrofuran-2-yl]methoxy-hydroxy-phosphoryl]oxy-oxido-phosphoryl] phosphate
   45    47     1     0     0
SMALL
USER_CHARGES

@<TRIPOS>ATOM
      1 PG         -2.5193    4.0131   -4.5495 P.3       1 GTP        -1.1921
      2 O1G        -1.9392    5.2941   -5.1396 O.co2     1 GTP         0.3195
      3 O2G        -1.9740    2.7310   -5.1691 O.co2     1 GTP         0.3195
      4 O3G        -4.0361    4.0304   -4.3893 O.co2     1 GTP         0.3195
      5 O3B        -1.9628    3.9881   -2.9985 O.3       1 GTP         0.4672
      6 PB         -2.1515    5.0343   -1.7591 P.3       1 GTP        -1.1062
      7 O1B        -1.4469    6.3290   -2.0980 O.co2     1 GTP         0.3195
      8 O2B        -3.6078    5.0263   -1.3493 O.co2     1 GTP         0.3195
      9 O3A        -1.2872    4.2498   -0.6187 O.3       1 GTP         0.4672
     10 PA         -0.4427    4.8271    0.6349 P.3       1 GTP        -0.9715
     11 O1A         0.6716    5.7555    0.2474 O.2       1 GTP         0.2707
     12 O2A        -1.5686    5.4793    1.5964 O.3       1 GTP         0.0326
     13 O5'         0.0166    3.5128    1.4591 O.3       1 GTP         0.1618
     14 C5'        -0.8811    2.4285    1.6206 C.3       1 GTP         0.1504
     15 C4'        -0.1994    1.3333    2.4288 C.3       1 GTP         0.1111
     16 O4'        -1.1285    0.2356    2.5840 O.3       1 GTP        -0.1436
     17 C3'         1.0324    0.7610    1.7344 C.3       1 GTP         0.1111
     18 O3'         1.9175    0.2377    2.7247 O.3       1 GTP        -0.2728
     19 C2'         0.4468   -0.3802    0.9263 C.3       1 GTP         0.1111
     20 O2'         1.3993   -1.3703    0.5961 O.3       1 GTP        -0.2728
     21 C1'        -0.6159   -0.9100    1.8769 C.3       1 GTP         0.0918
     22 N9         -1.7127   -1.6108    1.2130 N.pl3     1 GTP        -0.0449
     23 C8         -1.7695   -2.9586    0.9546 C.ar      1 GTP         0.4884
     24 N7         -2.8846   -3.3047    0.3416 N.2       1 GTP        -0.5260
     25 C5         -3.5626   -2.1296    0.2052 C.ar      1 GTP         0.4178
     26 C6         -4.8477   -1.8989   -0.3942 C.ar      1 GTP         0.2530
     27 O6         -5.5373   -2.7819   -0.8881 O.2       1 GTP        -0.2755
     28 N1         -5.1895   -0.5407   -0.3318 N.pl3     1 GTP        -0.1604
     29 C2         -4.3899    0.4774    0.2398 C.ar      1 GTP         0.4468
     30 N2         -4.9233    1.7390    0.1898 N.pl3     1 GTP        -0.5618
     31 N3         -3.2159    0.2368    0.7822 N.2       1 GTP        -0.4271
     32 C4         -2.8678   -1.0679    0.7322 C.ar      1 GTP         0.0498
     33 HOA2       -1.2997    5.8291    2.4724 H         1 GTP         0.2010
     34 H5'        -1.7777    2.7838    2.1390 H         1 GTP        -0.0393
     35 H5''       -1.1661    2.0530    0.6323 H         1 GTP        -0.0393
     36 H4'         0.0402    1.7079    3.4342 H         1 GTP        -0.0393
     37 H3'         1.5907    1.4859    1.1353 H         1 GTP        -0.0393
     38 HO3'        2.1521    0.9800    3.3017 H         1 GTP         0.2010
     39 H2'        -0.0017    0.0018    0.0005 H         1 GTP        -0.0393
     40 HO2'        0.9369   -2.0558    0.0825 H         1 GTP         0.2010
     41 H1'        -0.1998   -1.6319    2.6178 H         1 GTP        -0.0393
     42 H8         -0.9713   -3.6323    1.2352 H         1 GTP        -0.1369
     43 HN1        -6.0831   -0.2651   -0.7290 H         1 GTP         0.0865
     44 HN21       -4.3985    2.4878    0.5788 H         1 GTP         0.2048
     45 HN22       -5.8145    1.8572   -0.2335 H         1 GTP         0.2048
@<TRIPOS>BOND
     1    1    2 2
     2    1    3 1
     3    1    4 1
     4    1    5 1
     5    5    6 1
     6    6    7 2
     7    6    8 1
     8    6    9 1
     9    9   10 1
    10   10   11 2
    11   10   12 1
    12   10   13 1
    13   12   33 1
    14   13   14 1
    15   14   15 1
    16   14   34 1
    17   14   35 1
    18   15   16 1
    19   15   17 1
    20   15   36 1
    21   16   21 1
    22   17   18 1
    23   17   19 1
    24   17   37 1
    25   18   38 1
    26   19   20 1
    27   19   21 1
    28   19   39 1
    29   20   40 1
    30   21   22 1
    31   21   41 1
    32   22   23 ar
    33   22   32 ar
    34   23   24 ar
    35   23   42 1
    36   24   25 ar
    37   25   26 ar
    38   25   32 ar
    39   26   27 2
    40   26   28 ar
    41   28   29 ar
    42   28   43 1
    43   29   30 1
    44   29   31 ar
    45   30   44 1
    46   30   45 1
    47   31   32 ar
@<TRIPOS>SUBSTRUCTURE
     1 GTP         1 GROUP 0 A     ****
@<TRIPOS>MOLECULE
[[[5-(2-amino-6-oxo-1~{H}-purin-9-yl)-3,4-dihydroxy-tetrahydrofuran-2-yl]methoxy-hydroxy-phosphoryl]oxy-oxido-phosphoryl] phosphate
   45    47     1     0     0
SMALL
USER_CHARGES

@<TRIPOS>ATOM
      1 PG          0.8136    7.1319    4.9505 P.3       1 GTP        -1.1921
      2 O1G         0.2232    5.8972    5.6231 O.co2     1 GTP         0.3195
      3 O2G         2.3375    7.1570    4.9064 O.co2     1 GTP         0.3195
      4 O3G         0.1824    8.4473    5.3955 O.co2     1 GTP         0.3195
      5 O3B         0.3597    6.9949    3.3722 O.3       1 GTP         0.4672
      6 PB         -1.1108    6.9100    2.6676 P.3       1 GTP        -1.1062
      7 O1B        -2.1329    7.5403    3.5872 O.co2     1 GTP         0.3195
      8 O2B        -0.9750    7.3625    1.2304 O.co2     1 GTP         0.3195
      9 O3A        -1.3176    5.2914    2.6847 O.3       1 GTP         0.4672
     10 PA         -2.5512    4.3890    2.1537 P.3       1 GTP        -0.9715
     11 O1A        -3.8625    4.6915    2.8192 O.2       1 GTP         0.2707
     12 O2A        -2.5345    4.6098    0.5511 O.3       1 GTP         0.0326
     13 O5'        -2.0394    2.8623    2.3117 O.3       1 GTP         0.1618
     14 C5'        -0.8811    2.4285    1.6206 C.3       1 GTP         0.1504
     15 C4'        -0.1994    1.3333    2.4288 C.3       1 GTP         0.1111
     16 O4'        -1.1285    0.2356    2.5840 O.3       1 GTP        -0.1436
     17 C3'         1.0324    0.7610    1.7344 C.3       1 GTP         0.1111
     18 O3'         1.9175    0.2377    2.7247 O.3       1 GTP        -0.2728
     19 C2'         0.4468   -0.3802    0.9263 C.3       1 GTP         0.1111
     20 O2'         1.3993   -1.3703    0.5961 O.3       1 GTP        -0.2728
     21 C1'        -0.6159   -0.9100    1.8769 C.3       1 GTP         0.0918
     22 N9         -1.7127   -1.6108    1.2130 N.pl3     1 GTP        -0.0449
     23 C8         -2.5489   -1.0812    0.2607 C.ar      1 GTP         0.4884
     24 N7         -3.4468   -1.9516   -0.1576 N.2       1 GTP        -0.5260
     25 C5         -3.1696   -3.0787    0.5579 C.ar      1 GTP         0.4178
     26 C6         -3.8307   -4.3536    0.5166 C.ar      1 GTP         0.2530
     27 O6         -4.7841   -4.6033   -0.2101 O.2       1 GTP        -0.2755
     28 N1         -3.2356   -5.2522    1.4132 N.pl3     1 GTP        -0.1604
     29 C2         -2.1338   -4.9602    2.2517 C.ar      1 GTP         0.4468
     30 N2         -1.7156   -5.9923    3.0507 N.pl3     1 GTP        -0.5618
     31 N3         -1.5477   -3.7827    2.2686 N.2       1 GTP        -0.4271
     32 C4         -2.1070   -2.9013    1.4104 C.ar      1 GTP         0.0498
     33 HOA2       -2.7276    5.5023    0.1931 H         1 GTP         0.2010
     34 H5'        -1.1757    2.0497    0.6364 H         1 GTP        -0.0393
     35 H5''       -0.2069    3.2809    1.4872 H         1 GTP        -0.0393
     36 H4'         0.0402    1.7079    3.4342 H         1 GTP        -0.0393
     37 H3'         1.5907    1.4859    1.1353 H         1 GTP        -0.0393
     38 HO3'        2.6839   -0.1150    2.2479 H         1 GTP         0.2010
     39 H2'        -0.0017    0.0018    0.0005 H         1 GTP        -0.0393
     40 HO2'        2.0953   -0.9375    0.0709 H         1 GTP         0.2010
     41 H1'        -0.1998   -1.6319    2.6178 H         1 GTP        -0.0393
     42 H8         -2.4545   -0.0604   -0.0844 H         1 GTP        -0.1369
     43 HN1        -3.6270   -6.1884    1.4651 H         1 GTP         0.0865
     44 HN21       -0.9445   -5.8354    3.6574 H         1 GTP         0.2048
     45 HN22       -2.1993   -6.8585    2.9930 H         1 GTP         0.2048
@<TRIPOS>BOND
     1    1    2 2
     2    1    3 1
     3    1    4 1
     4    1    5 1
     5    5    6 1
     6    6    7 2
     7    6    8 1
     8    6    9 1
     9    9   10 1
    10   10   11 2
    11   10   12 1
    12   10   13 1
    13   12   33 1
    14   13   14 1
    15   14   15 1
    16   14   34 1
    17   14   35 1
    18   15   16 1
    19   15   17 1
    20   15   36 1
    21   16   21 1
    22   17   18 1
    23   17   19 1
    24   17   37 1
    25   18   38 1
    26   19   20 1
    27   19   21 1
    28   19   39 1
    29   20   40 1
    30   21   22 1
    31   21   41 1
    32   22   23 ar
    33   22   32 ar
    34   23   24 ar
    35   23   42 1
    36   24   25 ar
    37   25   26 ar
    38   25   32 ar
    39   26   27 2
    40   26   28 ar
    41   28   29 ar
    42   28   43 1
    43   29   30 1
    44   29   31 ar
    45   30   44 1
    46   30   45 1
    47   31   32 ar
@<TRIPOS>SUBSTRUCTURE
     1 GTP         1 GROUP 0 A     ****
@<TRIPOS>MOLECULE
[[[5-(2-amino-6-oxo-1~{H}-purin-9-yl)-3,4-dihydroxy-tetrahydrofuran-2-yl]methoxy-hydroxy-phosphoryl]oxy-oxido-phosphoryl] phosphate
   45    47     1     0     0
SMALL
USER_CHARGES

@<TRIPOS>ATOM
      1 PG          0.8057    4.2140    6.0545 P.3       1 GTP        -1.1921
      2 O1G        -0.2873    4.1756    7.1172 O.co2     1 GTP         0.3195
      3 O2G         1.4914    2.8747    5.8077 O.co2     1 GTP         0.3195
      4 O3G         1.7679    5.3898    6.1906 O.co2     1 GTP         0.3195
      5 O3B         0.0013    4.5279    4.6508 O.3       1 GTP         0.4672
      6 PB         -0.9422    5.7804    4.1956 P.3       1 GTP        -1.1062
      7 O1B        -2.2008    5.7771    5.0343 O.co2     1 GTP         0.3195
      8 O2B        -0.0755    7.0167    4.0997 O.co2     1 GTP         0.3195
      9 O3A        -1.3176    5.2914    2.6847 O.3       1 GTP         0.4672
     10 PA         -2.5512    4.3890    2.1537 P.3       1 GTP        -0.9715
     11 O1A        -3.8625    4.6915    2.8192 O.2       1 GTP         0.2707
     12 O2A        -2.5345    4.6098    0.5511 O.3       1 GTP         0.0326
     13 O5'        -2.0394    2.8623    2.3117 O.3       1 GTP         0.1618
     14 C5'        -0.8811    2.4285    1.6206 C.3       1 GTP         0.1504
     15 C4'        -0.1994    1.3333    2.4288 C.3       1 GTP         0.1111
     16 O4'        -1.1285    0.2356    2.5840 O.3       1 GTP        -0.1436
     17 C3'         1.0324    0.7610    1.7344 C.3       1 GTP         0.1111
     18 O3'         1.9175    0.2377    2.7247 O.3       1 GTP        -0.2728
     19 C2'         0.4468   -0.3802    0.9263 C.3       1 GTP         0.1111
     20 O2'         1.3993   -1.3703    0.5961 O.3       1 GTP        -0.2728
     21 C1'        -0.6159   -0.9100    1.8769 C.3       1 GTP         0.0918
     22 N9         -1.7127   -1.6108    1.2130 N.pl3     1 GTP        -0.0449
     23 C8         -2.5489   -1.0812    0.2607 C.ar      1 GTP         0.4884
     24 N7         -3.4468   -1.9516   -0.1576 N.2       1 GTP        -0.5260
     25 C5         -3.1696   -3.0787    0.5579 C.ar      1 GTP         0.4178
     26 C6         -3.8307   -4.3536    0.5166 C.ar      1 GTP         0.2530
     27 O6         -4.7841   -4.6033   -0.2101 O.2       1 GTP        -0.2755
     28 N1         -3.2356   -5.2522    1.4132 N.pl3     1 GTP        -0.1604
     29 C2         -2.1338   -4.9602    2.2517 C.ar      1 GTP         0.4468
     30 N2         -1.7156   -5.9923    3.0507 N.pl3     1 GTP        -0.5618
     31 N3         -1.5477   -3.7827    2.2686 N.2       1 GTP        -0.4271
     32 C4         -2.1070   -2.9013    1.4104 C.ar      1 GTP         0.0498
     33 HOA2       -2.7276    5.5023    0.1931 H         1 GTP         0.2010
     34 H5'        -1.1757    2.0497    0.6364 H         1 GTP        -0.0393
     35 H5''       -0.2069    3.2809    1.4872 H         1 GTP        -0.0393
     36 H4'         0.0402    1.7079    3.4342 H         1 GTP        -0.0393
     37 H3'         1.5907    1.4859    1.1353 H         1 GTP        -0.0393
     38 HO3'        2.6839   -0.1150    2.2479 H         1 GTP         0.2010
     39 H2'        -0.0017    0.0018    0.0005 H         1 GTP        -0.0393
     40 HO2'        0.9369   -2.0558    0.0825 H         1 GTP         0.2010
     41 H1'        -0.1998   -1.6319    2.6178 H         1 GTP        -0.0393
     42 H8         -2.4545   -0.0604   -0.0844 H         1 GTP        -0.1369
     43 HN1        -3.6270   -6.1884    1.4651 H         1 GTP         0.0865
     44 HN21       -0.9445   -5.8354    3.6574 H         1 GTP         0.2048
     45 HN22       -2.1993   -6.8585    2.9930 H         1 GTP         0.2048
@<TRIPOS>BOND
     1    1    2 2
     2    1    3 1
     3    1    4 1
     4    1    5 1
     5    5    6 1
     6    6    7 2
     7    6    8 1
     8    6    9 1
     9    9   10 1
    10   10   11 2
    11   10   12 1
    12   10   13 1
    13   12   33 1
    14   13   14 1
    15   14   15 1
    16   14   34 1
    17   14   35 1
    18   15   16 1
    19   15   17 1
    20   15   36 1
    21   16   21 1
    22   17   18 1
    23   17   19 1
    24   17   37 1
    25   18   38 1
    26   19   20 1
    27   19   21 1
    28   19   39 1
    29   20   40 1
    30   21   22 1
    31   21   41 1
    32   22   23 ar
    33   22   32 ar
    34   23   24 ar
    35   23   42 1
    36   24   25 ar
    37   25   26 ar
    38   25   32 ar
    39   26   27 2
    40   26   28 ar
    41   28   29 ar
    42   28   43 1
    43   29   30 1
    44   29   31 ar
    45   30   44 1
    46   30   45 1
    47   31   32 ar
@<TRIPOS>SUBSTRUCTURE
     1 GTP         1 GROUP 0 A     ****
@<TRIPOS>MOLECULE
[[[5-(2-amino-6-oxo-1~{H}-purin-9-yl)-3,4-dihydroxy-tetrahydrofuran-2-yl]methoxy-hydroxy-phosphoryl]oxy-oxido-phosphoryl] phosphate
   45    47     1     0     0
SMALL
USER_CHARGES

@<TRIPOS>ATOM
      1 PG          0.7116    4.6550   -3.6027 P.3       1 GTP        -1.1921
      2 O1G        -0.0944    4.4240   -4.8766 O.co2     1 GTP         0.3195
      3 O2G         1.8753    5.6273   -3.7615 O.co2     1 GTP         0.3195
      4 O3G         1.0665    3.3779   -2.8481 O.co2     1 GTP         0.3195
      5 O3B        -0.3343    5.4288   -2.5911 O.3       1 GTP         0.4672
      6 PB         -1.7856    4.9897   -1.9851 P.3       1 GTP        -1.1062
      7 O1B        -2.5577    6.2349   -1.6097 O.co2     1 GTP         0.3195
      8 O2B        -2.3878    3.9492   -2.9035 O.co2     1 GTP         0.3195
      9 O3A        -1.2872    4.2498   -0.6187 O.3       1 GTP         0.4672
     10 PA         -0.4427    4.8271    0.6349 P.3       1 GTP        -0.9715
     11 O1A         0.6716    5.7555    0.2474 O.2       1 GTP         0.2707
     12 O2A        -1.5686    5.4793    1.5964 O.3       1 GTP         0.0326
     13 O5'         0.0166    3.5128    1.4591 O.3       1 GTP         0.1618
     14 C5'        -0.8811    2.4285    1.6206 C.3       1 GTP         0.1504
     15 C4'        -0.1994    1.3333    2.4288 C.3       1 GTP         0.1111
     16 O4'        -1.1285    0.2356    2.5840 O.3       1 GTP        -0.1436
     17 C3'         1.0324    0.7610    1.7344 C.3       1 GTP         0.1111
     18 O3'         1.9175    0.2377    2.7247 O.3       1 GTP        -0.2728
     19 C2'         0.4468   -0.3802    0.9263 C.3       1 GTP         0.1111
     20 O2'         1.3993   -1.3703    0.5961 O.3       1 GTP        -0.2728
     21 C1'        -0.6159   -0.9100    1.8769 C.3       1 GTP         0.0918
     22 N9         -1.7127   -1.6108    1.2130 N.pl3     1 GTP        -0.0449
     23 C8         -2.8667   -1.0365    0.7385 C.ar      1 GTP         0.4884
     24 N7         -3.6757   -1.9196    0.1868 N.2       1 GTP        -0.5260
     25 C5         -3.0088   -3.1018    0.3164 C.ar      1 GTP         0.4178
     26 C6         -3.4148   -4.4130   -0.1079 C.ar      1 GTP         0.2530
     27 O6         -4.4753   -4.6480   -0.6732 O.2       1 GTP        -0.2755
     28 N1         -2.4377   -5.3653    0.2144 N.pl3     1 GTP        -0.1604
     29 C2         -1.2132   -5.0902    0.8680 C.ar      1 GTP         0.4468
     30 N2         -0.4066   -6.1772    1.0834 N.pl3     1 GTP        -0.5618
     31 N3         -0.8672   -3.8786    1.2457 N.2       1 GTP        -0.4271
     32 C4         -1.7966   -2.9451    0.9439 C.ar      1 GTP         0.0498
     33 HOA2       -2.0726    6.2577    1.2766 H         1 GTP         0.2010
     34 H5'        -1.7777    2.7838    2.1390 H         1 GTP        -0.0393
     35 H5''       -1.1661    2.0530    0.6323 H         1 GTP        -0.0393
     36 H4'         0.0402    1.7079    3.4342 H         1 GTP        -0.0393
     37 H3'         1.5907    1.4859    1.1353 H         1 GTP        -0.0393
     38 HO3'        2.6839   -0.1150    2.2479 H         1 GTP         0.2010
     39 H2'        -0.0017    0.0018    0.0005 H         1 GTP        -0.0393
     40 HO2'        0.9369   -2.0558    0.0825 H         1 GTP         0.2010
     41 H1'        -0.1998   -1.6319    2.6178 H         1 GTP        -0.0393
     42 H8         -3.0589    0.0244    0.8247 H         1 GTP        -0.1369
     43 HN1        -2.6238   -6.3307   -0.0420 H         1 GTP         0.0865
     44 HN21       -0.7237   -7.0672    0.7753 H         1 GTP         0.2048
     45 HN22        0.4646   -6.0344    1.5394 H         1 GTP         0.2048
@<TRIPOS>BOND
     1    1    2 2
     2    1    3 1
     3    1    4 1
     4    1    5 1
     5    5    6 1
     6    6    7 2
     7    6    8 1
     8    6    9 1
     9    9   10 1
    10   10   11 2
    11   10   12 1
    12   10   13 1
    13   12   33 1
    14   13   14 1
    15   14   15 1
    16   14   34 1
    17   14   35 1
    18   15   16 1
    19   15   17 1
    20   15   36 1
    21   16   21 1
    22   17   18 1
    23   17   19 1
    24   17   37 1
    25   18   38 1
    26   19   20 1
    27   19   21 1
    28   19   39 1
    29   20   40 1
    30   21   22 1
    31   21   41 1
    32   22   23 ar
    33   22   32 ar
    34   23   24 ar
    35   23   42 1
    36   24   25 ar
    37   25   26 ar
    38   25   32 ar
    39   26   27 2
    40   26   28 ar
    41   28   29 ar
    42   28   43 1
    43   29   30 1
    44   29   31 ar
    45   30   44 1
    46   30   45 1
    47   31   32 ar
@<TRIPOS>SUBSTRUCTURE
     1 GTP         1 GROUP 0 A     ****
@<TRIPOS>MOLECULE
[[[5-(2-amino-6-oxo-1~{H}-purin-9-yl)-3,4-dihydroxy-tetrahydrofuran-2-yl]methoxy-hydroxy-phosphoryl]oxy-oxido-phosphoryl] phosphate
   45    47     1     0     0
SMALL
USER_CHARGES

@<TRIPOS>ATOM
      1 PG         -2.1403    8.7123   -0.9271 P.3       1 GTP        -1.1921
      2 O1G        -2.1338    9.2343    0.5057 O.co2     1 GTP         0.3195
      3 O2G        -0.9113    9.0976   -1.7433 O.co2     1 GTP         0.3195
      4 O3G        -3.4625    8.9158   -1.6599 O.co2     1 GTP         0.3195
      5 O3B        -2.0301    7.0758   -0.7673 O.3       1 GTP         0.4672
      6 PB         -2.9924    5.9896   -0.0188 P.3       1 GTP        -1.1062
      7 O1B        -3.5457    6.6120    1.2438 O.co2     1 GTP         0.3195
      8 O2B        -3.9133    5.3800   -1.0528 O.co2     1 GTP         0.3195
      9 O3A        -1.8678    4.8810    0.3924 O.3       1 GTP         0.4672
     10 PA         -0.5530    5.0212    1.3251 P.3       1 GTP        -0.9715
     11 O1A         0.4406    6.0342    0.8349 O.2       1 GTP         0.2707
     12 O2A        -1.1505    5.3124    2.8001 O.3       1 GTP         0.0326
     13 O5'         0.0166    3.5128    1.4591 O.3       1 GTP         0.1618
     14 C5'        -0.8811    2.4285    1.6206 C.3       1 GTP         0.1504
     15 C4'        -0.1994    1.3333    2.4288 C.3       1 GTP         0.1111
     16 O4'        -1.1285    0.2356    2.5840 O.3       1 GTP        -0.1436
     17 C3'         1.0324    0.7610    1.7344 C.3       1 GTP         0.1111
     18 O3'         1.9175    0.2377    2.7247 O.3       1 GTP        -0.2728
     19 C2'         0.4468   -0.3802    0.9263 C.3       1 GTP         0.1111
     20 O2'         1.3993   -1.3703    0.5961 O.3       1 GTP        -0.2728
     21 C1'        -0.6159   -0.9100    1.8769 C.3       1 GTP         0.0918
     22 N9         -1.7127   -1.6108    1.2130 N.pl3     1 GTP        -0.0449
     23 C8         -1.7695   -2.9586    0.9546 C.ar      1 GTP         0.4884
     24 N7         -2.8846   -3.3047    0.3416 N.2       1 GTP        -0.5260
     25 C5         -3.5626   -2.1296    0.2052 C.ar      1 GTP         0.4178
     26 C6         -4.8477   -1.8989   -0.3942 C.ar      1 GTP         0.2530
     27 O6         -5.5373   -2.7819   -0.8881 O.2       1 GTP        -0.2755
     28 N1         -5.1895   -0.5407   -0.3318 N.pl3     1 GTP        -0.1604
     29 C2         -4.3899    0.4774    0.2398 C.ar      1 GTP         0.4468
     30 N2         -4.9233    1.7390    0.1898 N.pl3     1 GTP        -0.5618
     31 N3         -3.2159    0.2368    0.7822 N.2       1 GTP        -0.4271
     32 C4         -2.8678   -1.0679    0.7322 C.ar      1 GTP         0.0498
     33 HOA2       -0.5338    5.3572    3.5615 H         1 GTP         0.2010
     34 H5'        -1.7777    2.7838    2.1390 H         1 GTP        -0.0393
     35 H5''       -1.1661    2.0530    0.6323 H         1 GTP        -0.0393
     36 H4'         0.0402    1.7079    3.4342 H         1 GTP        -0.0393
     37 H3'         1.5907    1.4859    1.1353 H         1 GTP        -0.0393
     38 HO3'        2.6839   -0.1150    2.2479 H         1 GTP         0.2010
     39 H2'        -0.0017    0.0018    0.0005 H         1 GTP        -0.0393
     40 HO2'        0.9369   -2.0558    0.0825 H         1 GTP         0.2010
     41 H1'        -0.1998   -1.6319    2.6178 H         1 GTP        -0.0393
     42 H8         -0.9713   -3.6323    1.2352 H         1 GTP        -0.1369
     43 HN1        -6.0831   -0.2651   -0.7290 H         1 GTP         0.0865
     44 HN21       -4.3985    2.4878    0.5788 H         1 GTP         0.2048
     45 HN22       -5.8145    1.8572   -0.2335 H         1 GTP         0.2048
@<TRIPOS>BOND
     1    1    2 2
     2    1    3 1
     3    1    4 1
     4    1    5 1
     5    5    6 1
     6    6    7 2
     7    6    8 1
     8    6    9 1
     9    9   10 1
    10   10   11 2
    11   10   12 1
    12   10   13 1
    13   12   33 1
    14   13   14 1
    15   14   15 1
    16   14   34 1
    17   14   35 1
    18   15   16 1
    19   15   17 1
    20   15   36 1
    21   16   21 1
    22   17   18 1
    23   17   19 1
    24   17   37 1
    25   18   38 1
    26   19   20 1
    27   19   21 1
    28   19   39 1
    29   20   40 1
    30   21   22 1
    31   21   41 1
    32   22   23 ar
    33   22   32 ar
    34   23   24 ar
    35   23   42 1
    36   24   25 ar
    37   25   26 ar
    38   25   32 ar
    39   26   27 2
    40   26   28 ar
    41   28   29 ar
    42   28   43 1
    43   29   30 1
    44   29   31 ar
    45   30   44 1
    46   30   45 1
    47   31   32 ar
@<TRIPOS>SUBSTRUCTURE
     1 GTP         1 GROUP 0 A     ****
@<TRIPOS>MOLECULE
[[[5-(2-amino-6-oxo-1~{H}-purin-9-yl)-3,4-dihydroxy-tetrahydrofuran-2-yl]methoxy-hydroxy-phosphoryl]oxy-oxido-phosphoryl] phosphate
   45    47     1     0     0
SMALL
USER_CHARGES

@<TRIPOS>ATOM
      1 PG         -4.3435    3.6096   -0.9840 P.3       1 GTP        -1.1921
      2 O1G        -3.5766    2.4237   -0.4085 O.co2     1 GTP         0.3195
      3 O2G        -5.3909    4.1978   -0.0449 O.co2     1 GTP         0.3195
      4 O3G        -4.8360    3.4008   -2.4125 O.co2     1 GTP         0.3195
      5 O3B        -3.2108    4.7975   -1.1309 O.3       1 GTP         0.4672
      6 PB         -1.8148    4.8698   -1.9747 P.3       1 GTP        -1.1062
      7 O1B        -1.8857    3.8911   -3.1257 O.co2     1 GTP         0.3195
      8 O2B        -1.4790    6.3257   -2.2121 O.co2     1 GTP         0.3195
      9 O3A        -0.7944    4.2793   -0.8464 O.3       1 GTP         0.4672
     10 PA         -0.4427    4.8271    0.6349 P.3       1 GTP        -0.9715
     11 O1A         0.5394    5.9624    0.6510 O.2       1 GTP         0.2707
     12 O2A        -1.8876    5.1681    1.2779 O.3       1 GTP         0.0326
     13 O5'         0.0166    3.5128    1.4591 O.3       1 GTP         0.1618
     14 C5'        -0.8811    2.4285    1.6206 C.3       1 GTP         0.1504
     15 C4'        -0.1994    1.3333    2.4288 C.3       1 GTP         0.1111
     16 O4'        -1.1285    0.2356    2.5840 O.3       1 GTP        -0.1436
     17 C3'         1.0324    0.7610    1.7344 C.3       1 GTP         0.1111
     18 O3'         1.9175    0.2377    2.7247 O.3       1 GTP        -0.2728
     19 C2'         0.4468   -0.3802    0.9263 C.3       1 GTP         0.1111
     20 O2'         1.3993   -1.3703    0.5961 O.3       1 GTP        -0.2728
     21 C1'        -0.6159   -0.9100    1.8769 C.3       1 GTP         0.0918
     22 N9         -1.7127   -1.6108    1.2130 N.pl3     1 GTP        -0.0449
     23 C8         -2.8667   -1.0365    0.7385 C.ar      1 GTP         0.4884
     24 N7         -3.6757   -1.9196    0.1868 N.2       1 GTP        -0.5260
     25 C5         -3.0088   -3.1018    0.3164 C.ar      1 GTP         0.4178
     26 C6         -3.4148   -4.4130   -0.1079 C.ar      1 GTP         0.2530
     27 O6         -4.4753   -4.6480   -0.6732 O.2       1 GTP        -0.2755
     28 N1         -2.4377   -5.3653    0.2144 N.pl3     1 GTP        -0.1604
     29 C2         -1.2132   -5.0902    0.8680 C.ar      1 GTP         0.4468
     30 N2         -0.4066   -6.1772    1.0834 N.pl3     1 GTP        -0.5618
     31 N3         -0.8672   -3.8786    1.2457 N.2       1 GTP        -0.4271
     32 C4         -1.7966   -2.9451    0.9439 C.ar      1 GTP         0.0498
     33 HOA2       -2.4241    5.8887    0.8841 H         1 GTP         0.2010
     34 H5'        -1.7777    2.7838    2.1390 H         1 GTP        -0.0393
     35 H5''       -1.1661    2.0530    0.6323 H         1 GTP        -0.0393
     36 H4'         0.0402    1.7079    3.4342 H         1 GTP        -0.0393
     37 H3'         1.5907    1.4859    1.1353 H         1 GTP        -0.0393
     38 HO3'        2.1521    0.9800    3.3017 H         1 GTP         0.2010
     39 H2'        -0.0017    0.0018    0.0005 H         1 GTP        -0.0393
     40 HO2'        0.9369   -2.0558    0.0825 H         1 GTP         0.2010
     41 H1'        -0.1998   -1.6319    2.6178 H         1 GTP        -0.0393
     42 H8         -3.0589    0.0244    0.8247 H         1 GTP        -0.1369
     43 HN1        -2.6238   -6.3307   -0.0420 H         1 GTP         0.0865
     44 HN21        0.4646   -6.0341    1.5394 H         1 GTP         0.2048
     45 HN22       -0.7235   -7.0673    0.7753 H         1 GTP         0.2048
@<TRIPOS>BOND
     1    1    2 2
     2    1    3 1
     3    1    4 1
     4    1    5 1
     5    5    6 1
     6    6    7 2
     7    6    8 1
     8    6    9 1
     9    9   10 1
    10   10   11 2
    11   10   12 1
    12   10   13 1
    13   12   33 1
    14   13   14 1
    15   14   15 1
    16   14   34 1
    17   14   35 1
    18   15   16 1
    19   15   17 1
    20   15   36 1
    21   16   21 1
    22   17   18 1
    23   17   19 1
    24   17   37 1
    25   18   38 1
    26   19   20 1
    27   19   21 1
    28   19   39 1
    29   20   40 1
    30   21   22 1
    31   21   41 1
    32   22   23 ar
    33   22   32 ar
    34   23   24 ar
    35   23   42 1
    36   24   25 ar
    37   25   26 ar
    38   25   32 ar
    39   26   27 2
    40   26   28 ar
    41   28   29 ar
    42   28   43 1
    43   29   30 1
    44   29   31 ar
    45   30   44 1
    46   30   45 1
    47   31   32 ar
@<TRIPOS>SUBSTRUCTURE
     1 GTP         1 GROUP 0 A     ****
@<TRIPOS>MOLECULE
[[[5-(2-amino-6-oxo-1~{H}-purin-9-yl)-3,4-dihydroxy-tetrahydrofuran-2-yl]methoxy-hydroxy-phosphoryl]oxy-oxido-phosphoryl] phosphate
   45    47     1     0     0
SMALL
USER_CHARGES

@<TRIPOS>ATOM
      1 PG          0.1597    4.6787    6.2282 P.3       1 GTP        -1.1921
      2 O1G         0.9100    5.9349    6.6576 O.co2     1 GTP         0.3195
      3 O2G        -1.1698    4.4639    6.9433 O.co2     1 GTP         0.3195
      4 O3G         1.0304    3.4291    6.1451 O.co2     1 GTP         0.3195
      5 O3B        -0.2596    4.9677    4.6608 O.3       1 GTP         0.4672
      6 PB          0.6406    5.2807    3.3350 P.3       1 GTP        -1.1062
      7 O1B         1.3180    6.6220    3.5070 O.co2     1 GTP         0.3195
      8 O2B         1.4430    4.0418    3.0033 O.co2     1 GTP         0.3195
      9 O3A        -0.5552    5.4343    2.2353 O.3       1 GTP         0.4672
     10 PA         -2.0140    4.7370    2.1722 P.3       1 GTP        -0.9715
     11 O1A        -3.0396    5.3809    3.0594 O.2       1 GTP         0.2707
     12 O2A        -2.3796    4.7395    0.5962 O.3       1 GTP         0.0326
     13 O5'        -1.7333    3.1724    2.4738 O.3       1 GTP         0.1618
     14 C5'        -0.8811    2.4285    1.6206 C.3       1 GTP         0.1504
     15 C4'        -0.1994    1.3333    2.4288 C.3       1 GTP         0.1111
     16 O4'        -1.1285    0.2356    2.5840 O.3       1 GTP        -0.1436
     17 C3'         1.0324    0.7610    1.7344 C.3       1 GTP         0.1111
     18 O3'         1.9175    0.2377    2.7247 O.3       1 GTP        -0.2728
     19 C2'         0.4468   -0.3802    0.9263 C.3       1 GTP         0.1111
     20 O2'         1.3993   -1.3703    0.5961 O.3       1 GTP        -0.2728
     21 C1'        -0.6159   -0.9100    1.8769 C.3       1 GTP         0.0918
     22 N9         -1.7127   -1.6108    1.2130 N.pl3     1 GTP        -0.0449
     23 C8         -2.8667   -1.0365    0.7385 C.ar      1 GTP         0.4884
     24 N7         -3.6757   -1.9196    0.1868 N.2       1 GTP        -0.5260
     25 C5         -3.0088   -3.1018    0.3164 C.ar      1 GTP         0.4178
     26 C6         -3.4148   -4.4130   -0.1079 C.ar      1 GTP         0.2530
     27 O6         -4.4753   -4.6480   -0.6732 O.2       1 GTP        -0.2755
     28 N1         -2.4377   -5.3653    0.2144 N.pl3     1 GTP        -0.1604
     29 C2         -1.2132   -5.0902    0.8680 C.ar      1 GTP         0.4468
     30 N2         -0.4066   -6.1772    1.0834 N.pl3     1 GTP        -0.5618
     31 N3         -0.8672   -3.8786    1.2457 N.2       1 GTP        -0.4271
     32 C4         -1.7966   -2.9451    0.9439 C.ar      1 GTP         0.0498
     33 HOA2       -3.1982    4.2887    0.2983 H         1 GTP         0.2010
     34 H5'        -1.4792    1.9919    0.8140 H         1 GTP        -0.0393
     35 H5''       -0.1359    3.1032    1.1865 H         1 GTP        -0.0393
     36 H4'         0.0402    1.7079    3.4342 H         1 GTP        -0.0393
     37 H3'         1.5907    1.4859    1.1353 H         1 GTP        -0.0393
     38 HO3'        2.6839   -0.1150    2.2479 H         1 GTP         0.2010
     39 H2'        -0.0017    0.0018    0.0005 H         1 GTP        -0.0393
     40 HO2'        0.9369   -2.0558    0.0825 H         1 GTP         0.2010
     41 H1'        -0.1998   -1.6319    2.6178 H         1 GTP        -0.0393
     42 H8         -3.0589    0.0244    0.8247 H         1 GTP        -0.1369
     43 HN1        -2.6238   -6.3307   -0.0420 H         1 GTP         0.0865
     44 HN21        0.4646   -6.0341    1.5394 H         1 GTP         0.2048
     45 HN22       -0.7235   -7.0673    0.7753 H         1 GTP         0.2048
@<TRIPOS>BOND
     1    1    2 2
     2    1    3 1
     3    1    4 1
     4    1    5 1
     5    5    6 1
     6    6    7 2
     7    6    8 1
     8    6    9 1
     9    9   10 1
    10   10   11 2
    11   10   12 1
    12   10   13 1
    13   12   33 1
    14   13   14 1
    15   14   15 1
    16   14   34 1
    17   14   35 1
    18   15   16 1
    19   15   17 1
    20   15   36 1
    21   16   21 1
    22   17   18 1
    23   17   19 1
    24   17   37 1
    25   18   38 1
    26   19   20 1
    27   19   21 1
    28   19   39 1
    29   20   40 1
    30   21   22 1
    31   21   41 1
    32   22   23 ar
    33   22   32 ar
    34   23   24 ar
    35   23   42 1
    36   24   25 ar
    37   25   26 ar
    38   25   32 ar
    39   26   27 2
    40   26   28 ar
    41   28   29 ar
    42   28   43 1
    43   29   30 1
    44   29   31 ar
    45   30   44 1
    46   30   45 1
    47   31   32 ar
@<TRIPOS>SUBSTRUCTURE
     1 GTP         1 GROUP 0 A     ****
@<TRIPOS>MOLECULE
[[[5-(2-amino-6-oxo-1~{H}-purin-9-yl)-3,4-dihydroxy-tetrahydrofuran-2-yl]methoxy-hydroxy-phosphoryl]oxy-oxido-phosphoryl] phosphate
   45    47     1     0     0
SMALL
USER_CHARGES

@<TRIPOS>ATOM
      1 PG          1.3565    6.2578    0.7878 P.3       1 GTP        -1.1921
      2 O1G         1.4351    6.9357    2.1516 O.co2     1 GTP         0.3195
      3 O2G         2.3073    5.0784    0.6151 O.co2     1 GTP         0.3195
      4 O3G         1.3454    7.2258   -0.3909 O.co2     1 GTP         0.3195
      5 O3B        -0.1462    5.5820    0.7525 O.3       1 GTP         0.4672
      6 PB         -1.6361    6.2379    0.8785 P.3       1 GTP        -1.1062
      7 O1B        -1.8100    6.7970    2.2730 O.co2     1 GTP         0.3195
      8 O2B        -1.8792    7.1003   -0.3405 O.co2     1 GTP         0.3195
      9 O3A        -2.5331    4.8815    0.7418 O.3       1 GTP         0.4672
     10 PA         -3.0699    3.8636    1.8791 P.3       1 GTP        -0.9715
     11 O1A        -3.9629    4.5037    2.9021 O.2       1 GTP         0.2707
     12 O2A        -3.7517    2.6622    1.0370 O.3       1 GTP         0.0326
     13 O5'        -1.7333    3.1724    2.4738 O.3       1 GTP         0.1618
     14 C5'        -0.8811    2.4285    1.6206 C.3       1 GTP         0.1504
     15 C4'        -0.1994    1.3333    2.4288 C.3       1 GTP         0.1111
     16 O4'        -1.1285    0.2356    2.5840 O.3       1 GTP        -0.1436
     17 C3'         1.0324    0.7610    1.7344 C.3       1 GTP         0.1111
     18 O3'         1.9175    0.2377    2.7247 O.3       1 GTP        -0.2728
     19 C2'         0.4468   -0.3802    0.9263 C.3       1 GTP         0.1111
     20 O2'         1.3993   -1.3703    0.5961 O.3       1 GTP        -0.2728
     21 C1'        -0.6159   -0.9100    1.8769 C.3       1 GTP         0.0918
     22 N9         -1.7127   -1.6108    1.2130 N.pl3     1 GTP        -0.0449
     23 C8         -2.5489   -1.0812    0.2607 C.ar      1 GTP         0.4884
     24 N7         -3.4468   -1.9516   -0.1576 N.2       1 GTP        -0.5260
     25 C5         -3.1696   -3.0787    0.5579 C.ar      1 GTP         0.4178
     26 C6         -3.8307   -4.3536    0.5166 C.ar      1 GTP         0.2530
     27 O6         -4.7841   -4.6033   -0.2101 O.2       1 GTP        -0.2755
     28 N1         -3.2356   -5.2522    1.4132 N.pl3     1 GTP        -0.1604
     29 C2         -2.1338   -4.9602    2.2517 C.ar      1 GTP         0.4468
     30 N2         -1.7156   -5.9923    3.0507 N.pl3     1 GTP        -0.5618
     31 N3         -1.5477   -3.7827    2.2686 N.2       1 GTP        -0.4271
     32 C4         -2.1070   -2.9013    1.4104 C.ar      1 GTP         0.0498
     33 HOA2       -4.5498    2.8530    0.4995 H         1 GTP         0.2010
     34 H5'        -1.4792    1.9919    0.8140 H         1 GTP        -0.0393
     35 H5''       -0.1359    3.1032    1.1865 H         1 GTP        -0.0393
     36 H4'         0.0402    1.7079    3.4342 H         1 GTP        -0.0393
     37 H3'         1.5907    1.4859    1.1353 H         1 GTP        -0.0393
     38 HO3'        2.6839   -0.1150    2.2479 H         1 GTP         0.2010
     39 H2'        -0.0017    0.0018    0.0005 H         1 GTP        -0.0393
     40 HO2'        2.0953   -0.9375    0.0709 H         1 GTP         0.2010
     41 H1'        -0.1998   -1.6319    2.6178 H         1 GTP        -0.0393
     42 H8         -2.4545   -0.0604   -0.0844 H         1 GTP        -0.1369
     43 HN1        -3.6270   -6.1884    1.4651 H         1 GTP         0.0865
     44 HN21       -0.9445   -5.8354    3.6574 H         1 GTP         0.2048
     45 HN22       -2.1993   -6.8585    2.9930 H         1 GTP         0.2048
@<TRIPOS>BOND
     1    1    2 2
     2    1    3 1
     3    1    4 1
     4    1    5 1
     5    5    6 1
     6    6    7 2
     7    6    8 1
     8    6    9 1
     9    9   10 1
    10   10   11 2
    11   10   12 1
    12   10   13 1
    13   12   33 1
    14   13   14 1
    15   14   15 1
    16   14   34 1
    17   14   35 1
    18   15   16 1
    19   15   17 1
    20   15   36 1
    21   16   21 1
    22   17   18 1
    23   17   19 1
    24   17   37 1
    25   18   38 1
    26   19   20 1
    27   19   21 1
    28   19   39 1
    29   20   40 1
    30   21   22 1
    31   21   41 1
    32   22   23 ar
    33   22   32 ar
    34   23   24 ar
    35   23   42 1
    36   24   25 ar
    37   25   26 ar
    38   25   32 ar
    39   26   27 2
    40   26   28 ar
    41   28   29 ar
    42   28   43 1
    43   29   30 1
    44   29   31 ar
    45   30   44 1
    46   30   45 1
    47   31   32 ar
@<TRIPOS>SUBSTRUCTURE
     1 GTP         1 GROUP 0 A     ****
@<TRIPOS>MOLECULE
[[[5-(2-amino-6-oxo-1~{H}-purin-9-yl)-3,4-dihydroxy-tetrahydrofuran-2-yl]methoxy-hydroxy-phosphoryl]oxy-oxido-phosphoryl] phosphate
   45    47     1     0     0
SMALL
USER_CHARGES

@<TRIPOS>ATOM
      1 PG         -0.1055    8.9139    1.6775 P.3       1 GTP        -1.1921
      2 O1G         0.8529    9.1378    0.5126 O.co2     1 GTP         0.3195
      3 O2G        -1.2628    9.9047    1.7402 O.co2     1 GTP         0.3195
      4 O3G         0.5845    8.6776    3.0171 O.co2     1 GTP         0.3195
      5 O3B        -0.8217    7.4670    1.3463 O.3       1 GTP         0.4672
      6 PB         -0.2029    5.9703    1.1390 P.3       1 GTP        -1.1062
      7 O1B         0.6380    5.9565   -0.1181 O.co2     1 GTP         0.3195
      8 O2B         0.3678    5.5058    2.4608 O.co2     1 GTP         0.3195
      9 O3A        -1.5853    5.1512    0.8542 O.3       1 GTP         0.4672
     10 PA         -2.5918    4.4091    1.8810 P.3       1 GTP        -0.9715
     11 O1A        -3.1931    5.3178    2.9137 O.2       1 GTP         0.2707
     12 O2A        -3.6618    3.6740    0.9155 O.3       1 GTP         0.0326
     13 O5'        -1.7333    3.1724    2.4738 O.3       1 GTP         0.1618
     14 C5'        -0.8811    2.4285    1.6206 C.3       1 GTP         0.1504
     15 C4'        -0.1994    1.3333    2.4288 C.3       1 GTP         0.1111
     16 O4'        -1.1285    0.2356    2.5840 O.3       1 GTP        -0.1436
     17 C3'         1.0324    0.7610    1.7344 C.3       1 GTP         0.1111
     18 O3'         1.9175    0.2377    2.7247 O.3       1 GTP        -0.2728
     19 C2'         0.4468   -0.3802    0.9263 C.3       1 GTP         0.1111
     20 O2'         1.3993   -1.3703    0.5961 O.3       1 GTP        -0.2728
     21 C1'        -0.6159   -0.9100    1.8769 C.3       1 GTP         0.0918
     22 N9         -1.7127   -1.6108    1.2130 N.pl3     1 GTP        -0.0449
     23 C8         -2.5489   -1.0812    0.2607 C.ar      1 GTP         0.4884
     24 N7         -3.4468   -1.9516   -0.1576 N.2       1 GTP        -0.5260
     25 C5         -3.1696   -3.0787    0.5579 C.ar      1 GTP         0.4178
     26 C6         -3.8307   -4.3536    0.5166 C.ar      1 GTP         0.2530
     27 O6         -4.7841   -4.6033   -0.2101 O.2       1 GTP        -0.2755
     28 N1         -3.2356   -5.2522    1.4132 N.pl3     1 GTP        -0.1604
     29 C2         -2.1338   -4.9602    2.2517 C.ar      1 GTP         0.4468
     30 N2         -1.7156   -5.9923    3.0507 N.pl3     1 GTP        -0.5618
     31 N3         -1.5477   -3.7827    2.2686 N.2       1 GTP        -0.4271
     32 C4         -2.1070   -2.9013    1.4104 C.ar      1 GTP         0.0498
     33 HOA2       -4.3366    3.0857    1.3163 H         1 GTP         0.2010
     34 H5'        -1.4792    1.9919    0.8140 H         1 GTP        -0.0393
     35 H5''       -0.1359    3.1032    1.1865 H         1 GTP        -0.0393
     36 H4'         0.0402    1.7079    3.4342 H         1 GTP        -0.0393
     37 H3'         1.5907    1.4859    1.1353 H         1 GTP        -0.0393
     38 HO3'        2.6839   -0.1150    2.2479 H         1 GTP         0.2010
     39 H2'        -0.0017    0.0018    0.0005 H         1 GTP        -0.0393
     40 HO2'        2.0953   -0.9375    0.0709 H         1 GTP         0.2010
     41 H1'        -0.1998   -1.6319    2.6178 H         1 GTP        -0.0393
     42 H8         -2.4545   -0.0604   -0.0844 H         1 GTP        -0.1369
     43 HN1        -3.6270   -6.1884    1.4651 H         1 GTP         0.0865
     44 HN21       -0.9445   -5.8354    3.6574 H         1 GTP         0.2048
     45 HN22       -2.1993   -6.8585    2.9930 H         1 GTP         0.2048
@<TRIPOS>BOND
     1    1    2 2
     2    1    3 1
     3    1    4 1
     4    1    5 1
     5    5    6 1
     6    6    7 2
     7    6    8 1
     8    6    9 1
     9    9   10 1
    10   10   11 2
    11   10   12 1
    12   10   13 1
    13   12   33 1
    14   13   14 1
    15   14   15 1
    16   14   34 1
    17   14   35 1
    18   15   16 1
    19   15   17 1
    20   15   36 1
    21   16   21 1
    22   17   18 1
    23   17   19 1
    24   17   37 1
    25   18   38 1
    26   19   20 1
    27   19   21 1
    28   19   39 1
    29   20   40 1
    30   21   22 1
    31   21   41 1
    32   22   23 ar
    33   22   32 ar
    34   23   24 ar
    35   23   42 1
    36   24   25 ar
    37   25   26 ar
    38   25   32 ar
    39   26   27 2
    40   26   28 ar
    41   28   29 ar
    42   28   43 1
    43   29   30 1
    44   29   31 ar
    45   30   44 1
    46   30   45 1
    47   31   32 ar
@<TRIPOS>SUBSTRUCTURE
     1 GTP         1 GROUP 0 A     ****
@<TRIPOS>MOLECULE
[[[5-(2-amino-6-oxo-1~{H}-purin-9-yl)-3,4-dihydroxy-tetrahydrofuran-2-yl]methoxy-hydroxy-phosphoryl]oxy-oxido-phosphoryl] phosphate
   45    47     1     0     0
SMALL
USER_CHARGES

@<TRIPOS>ATOM
      1 PG         -4.4994    6.8873   -1.4951 P.3       1 GTP        -1.1921
      2 O1G        -3.8733    6.8091   -2.8835 O.co2     1 GTP         0.3195
      3 O2G        -5.7978    6.1022   -1.3447 O.co2     1 GTP         0.3195
      4 O3G        -4.5532    8.2961   -0.9130 O.co2     1 GTP         0.3195
      5 O3B        -3.4294    6.1016   -0.5186 O.3       1 GTP         0.4672
      6 PB         -1.8557    6.3806   -0.1843 P.3       1 GTP        -1.1062
      7 O1B        -1.0392    6.1478   -1.4361 O.co2     1 GTP         0.3195
      8 O2B        -1.7564    7.6842    0.5770 O.co2     1 GTP         0.3195
      9 O3A        -1.5853    5.1512    0.8542 O.3       1 GTP         0.4672
     10 PA         -2.5918    4.4091    1.8810 P.3       1 GTP        -0.9715
     11 O1A        -3.1931    5.3178    2.9137 O.2       1 GTP         0.2707
     12 O2A        -3.6618    3.6740    0.9155 O.3       1 GTP         0.0326
     13 O5'        -1.7333    3.1724    2.4738 O.3       1 GTP         0.1618
     14 C5'        -0.8811    2.4285    1.6206 C.3       1 GTP         0.1504
     15 C4'        -0.1994    1.3333    2.4288 C.3       1 GTP         0.1111
     16 O4'        -1.1285    0.2356    2.5840 O.3       1 GTP        -0.1436
     17 C3'         1.0324    0.7610    1.7344 C.3       1 GTP         0.1111
     18 O3'         1.9175    0.2377    2.7247 O.3       1 GTP        -0.2728
     19 C2'         0.4468   -0.3802    0.9263 C.3       1 GTP         0.1111
     20 O2'         1.3993   -1.3703    0.5961 O.3       1 GTP        -0.2728
     21 C1'        -0.6159   -0.9100    1.8769 C.3       1 GTP         0.0918
     22 N9         -1.7127   -1.6108    1.2130 N.pl3     1 GTP        -0.0449
     23 C8         -2.8667   -1.0365    0.7385 C.ar      1 GTP         0.4884
     24 N7         -3.6757   -1.9196    0.1868 N.2       1 GTP        -0.5260
     25 C5         -3.0088   -3.1018    0.3164 C.ar      1 GTP         0.4178
     26 C6         -3.4148   -4.4130   -0.1079 C.ar      1 GTP         0.2530
     27 O6         -4.4753   -4.6480   -0.6732 O.2       1 GTP        -0.2755
     28 N1         -2.4377   -5.3653    0.2144 N.pl3     1 GTP        -0.1604
     29 C2         -1.2132   -5.0902    0.8680 C.ar      1 GTP         0.4468
     30 N2         -0.4066   -6.1772    1.0834 N.pl3     1 GTP        -0.5618
     31 N3         -0.8672   -3.8786    1.2457 N.2       1 GTP        -0.4271
     32 C4         -1.7966   -2.9451    0.9439 C.ar      1 GTP         0.0498
     33 HOA2       -4.3366    3.0857    1.3163 H         1 GTP         0.2010
     34 H5'        -1.4792    1.9919    0.8140 H         1 GTP        -0.0393
     35 H5''       -0.1359    3.1032    1.1865 H         1 GTP        -0.0393
     36 H4'         0.0402    1.7079    3.4342 H         1 GTP        -0.0393
     37 H3'         1.5907    1.4859    1.1353 H         1 GTP        -0.0393
     38 HO3'        2.1521    0.9800    3.3017 H         1 GTP         0.2010
     39 H2'        -0.0017    0.0018    0.0005 H         1 GTP        -0.0393
     40 HO2'        2.0953   -0.9375    0.0709 H         1 GTP         0.2010
     41 H1'        -0.1998   -1.6319    2.6178 H         1 GTP        -0.0393
     42 H8         -3.0589    0.0244    0.8247 H         1 GTP        -0.1369
     43 HN1        -2.6238   -6.3307   -0.0420 H         1 GTP         0.0865
     44 HN21        0.4646   -6.0341    1.5394 H         1 GTP         0.2048
     45 HN22       -0.7235   -7.0673    0.7753 H         1 GTP         0.2048
@<TRIPOS>BOND
     1    1    2 2
     2    1    3 1
     3    1    4 1
     4    1    5 1
     5    5    6 1
     6    6    7 2
     7    6    8 1
     8    6    9 1
     9    9   10 1
    10   10   11 2
    11   10   12 1
    12   10   13 1
    13   12   33 1
    14   13   14 1
    15   14   15 1
    16   14   34 1
    17   14   35 1
    18   15   16 1
    19   15   17 1
    20   15   36 1
    21   16   21 1
    22   17   18 1
    23   17   19 1
    24   17   37 1
    25   18   38 1
    26   19   20 1
    27   19   21 1
    28   19   39 1
    29   20   40 1
    30   21   22 1
    31   21   41 1
    32   22   23 ar
    33   22   32 ar
    34   23   24 ar
    35   23   42 1
    36   24   25 ar
    37   25   26 ar
    38   25   32 ar
    39   26   27 2
    40   26   28 ar
    41   28   29 ar
    42   28   43 1
    43   29   30 1
    44   29   31 ar
    45   30   44 1
    46   30   45 1
    47   31   32 ar
@<TRIPOS>SUBSTRUCTURE
     1 GTP         1 GROUP 0 A     ****
@<TRIPOS>MOLECULE
[[[5-(2-amino-6-oxo-1~{H}-purin-9-yl)-3,4-dihydroxy-tetrahydrofuran-2-yl]methoxy-hydroxy-phosphoryl]oxy-oxido-phosphoryl] phosphate
   45    47     1     0     0
SMALL
USER_CHARGES

@<TRIPOS>ATOM
      1 PG         -1.3963    4.3832   -2.6586 P.3       1 GTP        -1.1921
      2 O1G        -2.3306    3.2512   -2.2450 O.co2     1 GTP         0.3195
      3 O2G        -1.7199    5.0037   -4.0133 O.co2     1 GTP         0.3195
      4 O3G         0.0839    4.0783   -2.4517 O.co2     1 GTP         0.3195
      5 O3B        -1.7032    5.5848   -1.5732 O.3       1 GTP         0.4672
      6 PB         -1.5802    5.6368    0.0541 P.3       1 GTP        -1.1062
      7 O1B        -0.1856    5.2101    0.4548 O.co2     1 GTP         0.3195
      8 O2B        -2.1580    6.9509    0.5316 O.co2     1 GTP         0.3195
      9 O3A        -2.6241    4.4418    0.4352 O.3       1 GTP         0.4672
     10 PA         -3.0699    3.8636    1.8791 P.3       1 GTP        -0.9715
     11 O1A        -3.7108    4.8828    2.7759 O.2       1 GTP         0.2707
     12 O2A        -4.0026    2.5917    1.5188 O.3       1 GTP         0.0326
     13 O5'        -1.7333    3.1724    2.4738 O.3       1 GTP         0.1618
     14 C5'        -0.8811    2.4285    1.6206 C.3       1 GTP         0.1504
     15 C4'        -0.1994    1.3333    2.4288 C.3       1 GTP         0.1111
     16 O4'        -1.1285    0.2356    2.5840 O.3       1 GTP        -0.1436
     17 C3'         1.0324    0.7610    1.7344 C.3       1 GTP         0.1111
     18 O3'         1.9175    0.2377    2.7247 O.3       1 GTP        -0.2728
     19 C2'         0.4468   -0.3802    0.9263 C.3       1 GTP         0.1111
     20 O2'         1.3993   -1.3703    0.5961 O.3       1 GTP        -0.2728
     21 C1'        -0.6159   -0.9100    1.8769 C.3       1 GTP         0.0918
     22 N9         -1.7127   -1.6108    1.2130 N.pl3     1 GTP        -0.0449
     23 C8         -2.8667   -1.0365    0.7385 C.ar      1 GTP         0.4884
     24 N7         -3.6757   -1.9196    0.1868 N.2       1 GTP        -0.5260
     25 C5         -3.0088   -3.1018    0.3164 C.ar      1 GTP         0.4178
     26 C6         -3.4148   -4.4130   -0.1079 C.ar      1 GTP         0.2530
     27 O6         -4.4753   -4.6480   -0.6732 O.2       1 GTP        -0.2755
     28 N1         -2.4377   -5.3653    0.2144 N.pl3     1 GTP        -0.1604
     29 C2         -1.2132   -5.0902    0.8680 C.ar      1 GTP         0.4468
     30 N2         -0.4066   -6.1772    1.0834 N.pl3     1 GTP        -0.5618
     31 N3         -0.8672   -3.8786    1.2457 N.2       1 GTP        -0.4271
     32 C4         -1.7966   -2.9451    0.9439 C.ar      1 GTP         0.0498
     33 HOA2       -4.8538    2.7436    1.0557 H         1 GTP         0.2010
     34 H5'        -1.4792    1.9919    0.8140 H         1 GTP        -0.0393
     35 H5''       -0.1359    3.1032    1.1865 H         1 GTP        -0.0393
     36 H4'         0.0402    1.7079    3.4342 H         1 GTP        -0.0393
     37 H3'         1.5907    1.4859    1.1353 H         1 GTP        -0.0393
     38 HO3'        2.1521    0.9800    3.3017 H         1 GTP         0.2010
     39 H2'        -0.0017    0.0018    0.0005 H         1 GTP        -0.0393
     40 HO2'        2.0953   -0.9375    0.0709 H         1 GTP         0.2010
     41 H1'        -0.1998   -1.6319    2.6178 H         1 GTP        -0.0393
     42 H8         -3.0589    0.0244    0.8247 H         1 GTP        -0.1369
     43 HN1        -2.6238   -6.3307   -0.0420 H         1 GTP         0.0865
     44 HN21        0.4646   -6.0341    1.5394 H         1 GTP         0.2048
     45 HN22       -0.7235   -7.0673    0.7753 H         1 GTP         0.2048
@<TRIPOS>BOND
     1    1    2 2
     2    1    3 1
     3    1    4 1
     4    1    5 1
     5    5    6 1
     6    6    7 2
     7    6    8 1
     8    6    9 1
     9    9   10 1
    10   10   11 2
    11   10   12 1
    12   10   13 1
    13   12   33 1
    14   13   14 1
    15   14   15 1
    16   14   34 1
    17   14   35 1
    18   15   16 1
    19   15   17 1
    20   15   36 1
    21   16   21 1
    22   17   18 1
    23   17   19 1
    24   17   37 1
    25   18   38 1
    26   19   20 1
    27   19   21 1
    28   19   39 1
    29   20   40 1
    30   21   22 1
    31   21   41 1
    32   22   23 ar
    33   22   32 ar
    34   23   24 ar
    35   23   42 1
    36   24   25 ar
    37   25   26 ar
    38   25   32 ar
    39   26   27 2
    40   26   28 ar
    41   28   29 ar
    42   28   43 1
    43   29   30 1
    44   29   31 ar
    45   30   44 1
    46   30   45 1
    47   31   32 ar
@<TRIPOS>SUBSTRUCTURE
     1 GTP         1 GROUP 0 A     ****
@<TRIPOS>MOLECULE
[[[5-(2-amino-6-oxo-1~{H}-purin-9-yl)-3,4-dihydroxy-tetrahydrofuran-2-yl]methoxy-hydroxy-phosphoryl]oxy-oxido-phosphoryl] phosphate
   45    47     1     0     0
SMALL
USER_CHARGES

@<TRIPOS>ATOM
      1 PG          0.6931    6.2359   -0.1664 P.3       1 GTP        -1.1921
      2 O1G         1.0888    4.8608    0.3611 O.co2     1 GTP         0.3195
      3 O2G         0.2222    6.2424   -1.6166 O.co2     1 GTP         0.3195
      4 O3G         1.6865    7.3433    0.1701 O.co2     1 GTP         0.3195
      5 O3B        -0.6486    6.6372    0.7024 O.3       1 GTP         0.4672
      6 PB         -0.8899    6.8202    2.3069 P.3       1 GTP        -1.1062
      7 O1B         0.4333    7.1326    2.9697 O.co2     1 GTP         0.3195
      8 O2B        -2.0903    7.7189    2.5064 O.co2     1 GTP         0.3195
      9 O3A        -1.3176    5.2914    2.6847 O.3       1 GTP         0.4672
     10 PA         -2.5512    4.3890    2.1537 P.3       1 GTP        -0.9715
     11 O1A        -3.8625    4.6915    2.8192 O.2       1 GTP         0.2707
     12 O2A        -2.5345    4.6098    0.5511 O.3       1 GTP         0.0326
     13 O5'        -2.0394    2.8623    2.3117 O.3       1 GTP         0.1618
     14 C5'        -0.8811    2.4285    1.6206 C.3       1 GTP         0.1504
     15 C4'        -0.1994    1.3333    2.4288 C.3       1 GTP         0.1111
     16 O4'        -1.1285    0.2356    2.5840 O.3       1 GTP        -0.1436
     17 C3'         1.0324    0.7610    1.7344 C.3       1 GTP         0.1111
     18 O3'         1.9175    0.2377    2.7247 O.3       1 GTP        -0.2728
     19 C2'         0.4468   -0.3802    0.9263 C.3       1 GTP         0.1111
     20 O2'         1.3993   -1.3703    0.5961 O.3       1 GTP        -0.2728
     21 C1'        -0.6159   -0.9100    1.8769 C.3       1 GTP         0.0918
     22 N9         -1.7127   -1.6108    1.2130 N.pl3     1 GTP        -0.0449
     23 C8         -1.7695   -2.9586    0.9546 C.ar      1 GTP         0.4884
     24 N7         -2.8846   -3.3047    0.3416 N.2       1 GTP        -0.5260
     25 C5         -3.5626   -2.1296    0.2052 C.ar      1 GTP         0.4178
     26 C6         -4.8477   -1.8989   -0.3942 C.ar      1 GTP         0.2530
     27 O6         -5.5373   -2.7819   -0.8881 O.2       1 GTP        -0.2755
     28 N1         -5.1895   -0.5407   -0.3318 N.pl3     1 GTP        -0.1604
     29 C2         -4.3899    0.4774    0.2398 C.ar      1 GTP         0.4468
     30 N2         -4.9233    1.7390    0.1898 N.pl3     1 GTP        -0.5618
     31 N3         -3.2159    0.2368    0.7822 N.2       1 GTP        -0.4271
     32 C4         -2.8678   -1.0679    0.7322 C.ar      1 GTP         0.0498
     33 HOA2       -2.7276    5.5023    0.1931 H         1 GTP         0.2010
     34 H5'        -1.1757    2.0497    0.6364 H         1 GTP        -0.0393
     35 H5''       -0.2069    3.2809    1.4872 H         1 GTP        -0.0393
     36 H4'         0.0402    1.7079    3.4342 H         1 GTP        -0.0393
     37 H3'         1.5907    1.4859    1.1353 H         1 GTP        -0.0393
     38 HO3'        2.6839   -0.1150    2.2479 H         1 GTP         0.2010
     39 H2'        -0.0017    0.0018    0.0005 H         1 GTP        -0.0393
     40 HO2'        0.9369   -2.0558    0.0825 H         1 GTP         0.2010
     41 H1'        -0.1998   -1.6319    2.6178 H         1 GTP        -0.0393
     42 H8         -0.9713   -3.6323    1.2352 H         1 GTP        -0.1369
     43 HN1        -6.0831   -0.2651   -0.7290 H         1 GTP         0.0865
     44 HN21       -4.3985    2.4878    0.5788 H         1 GTP         0.2048
     45 HN22       -5.8145    1.8572   -0.2335 H         1 GTP         0.2048
@<TRIPOS>BOND
     1    1    2 2
     2    1    3 1
     3    1    4 1
     4    1    5 1
     5    5    6 1
     6    6    7 2
     7    6    8 1
     8    6    9 1
     9    9   10 1
    10   10   11 2
    11   10   12 1
    12   10   13 1
    13   12   33 1
    14   13   14 1
    15   14   15 1
    16   14   34 1
    17   14   35 1
    18   15   16 1
    19   15   17 1
    20   15   36 1
    21   16   21 1
    22   17   18 1
    23   17   19 1
    24   17   37 1
    25   18   38 1
    26   19   20 1
    27   19   21 1
    28   19   39 1
    29   20   40 1
    30   21   22 1
    31   21   41 1
    32   22   23 ar
    33   22   32 ar
    34   23   24 ar
    35   23   42 1
    36   24   25 ar
    37   25   26 ar
    38   25   32 ar
    39   26   27 2
    40   26   28 ar
    41   28   29 ar
    42   28   43 1
    43   29   30 1
    44   29   31 ar
    45   30   44 1
    46   30   45 1
    47   31   32 ar
@<TRIPOS>SUBSTRUCTURE
     1 GTP         1 GROUP 0 A     ****
@<TRIPOS>MOLECULE
[[[5-(2-amino-6-oxo-1~{H}-purin-9-yl)-3,4-dihydroxy-tetrahydrofuran-2-yl]methoxy-hydroxy-phosphoryl]oxy-oxido-phosphoryl] phosphate
   45    47     1     0     0
SMALL
USER_CHARGES

@<TRIPOS>ATOM
      1 PG          1.5640    5.5235   -3.2882 P.3       1 GTP        -1.1921
      2 O1G         0.2308    5.9273   -2.6675 O.co2     1 GTP         0.3195
      3 O2G         2.6183    6.6250   -3.2874 O.co2     1 GTP         0.3195
      4 O3G         1.4361    4.7856   -4.6170 O.co2     1 GTP         0.3195
      5 O3B         2.1636    4.3810   -2.2629 O.3       1 GTP         0.4672
      6 PB          1.5751    2.9358   -1.7822 P.3       1 GTP        -1.1062
      7 O1B         1.2461    2.1085   -3.0049 O.co2     1 GTP         0.3195
      8 O2B         2.4786    2.3930   -0.6969 O.co2     1 GTP         0.3195
      9 O3A         0.1812    3.4344   -1.0958 O.3       1 GTP         0.4672
     10 PA         -0.0721    4.4467    0.1409 P.3       1 GTP        -0.9715
     11 O1A         0.8341    5.6436    0.1482 O.2       1 GTP         0.2707
     12 O2A        -1.6506    4.7887    0.0480 O.3       1 GTP         0.0326
     13 O5'         0.0166    3.5128    1.4591 O.3       1 GTP         0.1618
     14 C5'        -0.8811    2.4285    1.6206 C.3       1 GTP         0.1504
     15 C4'        -0.1994    1.3333    2.4288 C.3       1 GTP         0.1111
     16 O4'        -1.1285    0.2356    2.5840 O.3       1 GTP        -0.1436
     17 C3'         1.0324    0.7610    1.7344 C.3       1 GTP         0.1111
     18 O3'         1.9175    0.2377    2.7247 O.3       1 GTP        -0.2728
     19 C2'         0.4468   -0.3802    0.9263 C.3       1 GTP         0.1111
     20 O2'         1.3993   -1.3703    0.5961 O.3       1 GTP        -0.2728
     21 C1'        -0.6159   -0.9100    1.8769 C.3       1 GTP         0.0918
     22 N9         -1.7127   -1.6108    1.2130 N.pl3     1 GTP        -0.0449
     23 C8         -2.8667   -1.0365    0.7385 C.ar      1 GTP         0.4884
     24 N7         -3.6757   -1.9196    0.1868 N.2       1 GTP        -0.5260
     25 C5         -3.0088   -3.1018    0.3164 C.ar      1 GTP         0.4178
     26 C6         -3.4148   -4.4130   -0.1079 C.ar      1 GTP         0.2530
     27 O6         -4.4753   -4.6480   -0.6732 O.2       1 GTP        -0.2755
     28 N1         -2.4377   -5.3653    0.2144 N.pl3     1 GTP        -0.1604
     29 C2         -1.2132   -5.0902    0.8680 C.ar      1 GTP         0.4468
     30 N2         -0.4066   -6.1772    1.0834 N.pl3     1 GTP        -0.5618
     31 N3         -0.8672   -3.8786    1.2457 N.2       1 GTP        -0.4271
     32 C4         -1.7966   -2.9451    0.9439 C.ar      1 GTP         0.0498
     33 HOA2       -1.9838    5.2838   -0.7305 H         1 GTP         0.2010
     34 H5'        -1.7777    2.7838    2.1390 H         1 GTP        -0.0393
     35 H5''       -1.1661    2.0530    0.6323 H         1 GTP        -0.0393
     36 H4'         0.0402    1.7079    3.4342 H         1 GTP        -0.0393
     37 H3'         1.5907    1.4859    1.1353 H         1 GTP        -0.0393
     38 HO3'        2.6839   -0.1150    2.2479 H         1 GTP         0.2010
     39 H2'        -0.0017    0.0018    0.0005 H         1 GTP        -0.0393
     40 HO2'        2.0953   -0.9375    0.0709 H         1 GTP         0.2010
     41 H1'        -0.1998   -1.6319    2.6178 H         1 GTP        -0.0393
     42 H8         -3.0589    0.0244    0.8247 H         1 GTP        -0.1369
     43 HN1        -2.6238   -6.3307   -0.0420 H         1 GTP         0.0865
     44 HN21        0.4646   -6.0341    1.5394 H         1 GTP         0.2048
     45 HN22       -0.7235   -7.0673    0.7753 H         1 GTP         0.2048
@<TRIPOS>BOND
     1    1    2 2
     2    1    3 1
     3    1    4 1
     4    1    5 1
     5    5    6 1
     6    6    7 2
     7    6    8 1
     8    6    9 1
     9    9   10 1
    10   10   11 2
    11   10   12 1
    12   10   13 1
    13   12   33 1
    14   13   14 1
    15   14   15 1
    16   14   34 1
    17   14   35 1
    18   15   16 1
    19   15   17 1
    20   15   36 1
    21   16   21 1
    22   17   18 1
    23   17   19 1
    24   17   37 1
    25   18   38 1
    26   19   20 1
    27   19   21 1
    28   19   39 1
    29   20   40 1
    30   21   22 1
    31   21   41 1
    32   22   23 ar
    33   22   32 ar
    34   23   24 ar
    35   23   42 1
    36   24   25 ar
    37   25   26 ar
    38   25   32 ar
    39   26   27 2
    40   26   28 ar
    41   28   29 ar
    42   28   43 1
    43   29   30 1
    44   29   31 ar
    45   30   44 1
    46   30   45 1
    47   31   32 ar
@<TRIPOS>SUBSTRUCTURE
     1 GTP         1 GROUP 0 A     ****
@<TRIPOS>MOLECULE
[[[5-(2-amino-6-oxo-1~{H}-purin-9-yl)-3,4-dihydroxy-tetrahydrofuran-2-yl]methoxy-hydroxy-phosphoryl]oxy-oxido-phosphoryl] phosphate
   45    47     1     0     0
SMALL
USER_CHARGES

@<TRIPOS>ATOM
      1 PG          1.5640    5.5235   -3.2882 P.3       1 GTP        -1.1921
      2 O1G         0.2308    5.9273   -2.6675 O.co2     1 GTP         0.3195
      3 O2G         2.6183    6.6250   -3.2874 O.co2     1 GTP         0.3195
      4 O3G         1.4361    4.7856   -4.6170 O.co2     1 GTP         0.3195
      5 O3B         2.1636    4.3810   -2.2629 O.3       1 GTP         0.4672
      6 PB          1.5751    2.9358   -1.7822 P.3       1 GTP        -1.1062
      7 O1B         1.2461    2.1085   -3.0049 O.co2     1 GTP         0.3195
      8 O2B         2.4786    2.3930   -0.6969 O.co2     1 GTP         0.3195
      9 O3A         0.1812    3.4344   -1.0958 O.3       1 GTP         0.4672
     10 PA         -0.0721    4.4467    0.1409 P.3       1 GTP        -0.9715
     11 O1A         0.8341    5.6436    0.1482 O.2       1 GTP         0.2707
     12 O2A        -1.6506    4.7887    0.0480 O.3       1 GTP         0.0326
     13 O5'         0.0166    3.5128    1.4591 O.3       1 GTP         0.1618
     14 C5'        -0.8811    2.4285    1.6206 C.3       1 GTP         0.1504
     15 C4'        -0.1994    1.3333    2.4288 C.3       1 GTP         0.1111
     16 O4'        -1.1285    0.2356    2.5840 O.3       1 GTP        -0.1436
     17 C3'         1.0324    0.7610    1.7344 C.3       1 GTP         0.1111
     18 O3'         1.9175    0.2377    2.7247 O.3       1 GTP        -0.2728
     19 C2'         0.4468   -0.3802    0.9263 C.3       1 GTP         0.1111
     20 O2'         1.3993   -1.3703    0.5961 O.3       1 GTP        -0.2728
     21 C1'        -0.6159   -0.9100    1.8769 C.3       1 GTP         0.0918
     22 N9         -1.7127   -1.6108    1.2130 N.pl3     1 GTP        -0.0449
     23 C8         -1.7695   -2.9586    0.9546 C.ar      1 GTP         0.4884
     24 N7         -2.8846   -3.3047    0.3416 N.2       1 GTP        -0.5260
     25 C5         -3.5626   -2.1296    0.2052 C.ar      1 GTP         0.4178
     26 C6         -4.8477   -1.8989   -0.3942 C.ar      1 GTP         0.2530
     27 O6         -5.5373   -2.7819   -0.8881 O.2       1 GTP        -0.2755
     28 N1         -5.1895   -0.5407   -0.3318 N.pl3     1 GTP        -0.1604
     29 C2         -4.3899    0.4774    0.2398 C.ar      1 GTP         0.4468
     30 N2         -4.9233    1.7390    0.1898 N.pl3     1 GTP        -0.5618
     31 N3         -3.2159    0.2368    0.7822 N.2       1 GTP        -0.4271
     32 C4         -2.8678   -1.0679    0.7322 C.ar      1 GTP         0.0498
     33 HOA2       -1.9838    5.2838   -0.7305 H         1 GTP         0.2010
     34 H5'        -1.7777    2.7838    2.1390 H         1 GTP        -0.0393
     35 H5''       -1.1661    2.0530    0.6323 H         1 GTP        -0.0393
     36 H4'         0.0402    1.7079    3.4342 H         1 GTP        -0.0393
     37 H3'         1.5907    1.4859    1.1353 H         1 GTP        -0.0393
     38 HO3'        2.6839   -0.1150    2.2479 H         1 GTP         0.2010
     39 H2'        -0.0017    0.0018    0.0005 H         1 GTP        -0.0393
     40 HO2'        2.0953   -0.9375    0.0709 H         1 GTP         0.2010
     41 H1'        -0.1998   -1.6319    2.6178 H         1 GTP        -0.0393
     42 H8         -0.9713   -3.6323    1.2352 H         1 GTP        -0.1369
     43 HN1        -6.0831   -0.2651   -0.7290 H         1 GTP         0.0865
     44 HN21       -4.3985    2.4878    0.5788 H         1 GTP         0.2048
     45 HN22       -5.8145    1.8572   -0.2335 H         1 GTP         0.2048
@<TRIPOS>BOND
     1    1    2 2
     2    1    3 1
     3    1    4 1
     4    1    5 1
     5    5    6 1
     6    6    7 2
     7    6    8 1
     8    6    9 1
     9    9   10 1
    10   10   11 2
    11   10   12 1
    12   10   13 1
    13   12   33 1
    14   13   14 1
    15   14   15 1
    16   14   34 1
    17   14   35 1
    18   15   16 1
    19   15   17 1
    20   15   36 1
    21   16   21 1
    22   17   18 1
    23   17   19 1
    24   17   37 1
    25   18   38 1
    26   19   20 1
    27   19   21 1
    28   19   39 1
    29   20   40 1
    30   21   22 1
    31   21   41 1
    32   22   23 ar
    33   22   32 ar
    34   23   24 ar
    35   23   42 1
    36   24   25 ar
    37   25   26 ar
    38   25   32 ar
    39   26   27 2
    40   26   28 ar
    41   28   29 ar
    42   28   43 1
    43   29   30 1
    44   29   31 ar
    45   30   44 1
    46   30   45 1
    47   31   32 ar
@<TRIPOS>SUBSTRUCTURE
     1 GTP         1 GROUP 0 A     ****
@<TRIPOS>MOLECULE
[[[5-(2-amino-6-oxo-1~{H}-purin-9-yl)-3,4-dihydroxy-tetrahydrofuran-2-yl]methoxy-hydroxy-phosphoryl]oxy-oxido-phosphoryl] phosphate
   45    47     1     0     0
SMALL
USER_CHARGES

@<TRIPOS>ATOM
      1 PG          0.2857    8.0348    3.6774 P.3       1 GTP        -1.1921
      2 O1G        -0.4078    8.4019    4.9850 O.co2     1 GTP         0.3195
      3 O2G         1.6618    8.6660    3.4957 O.co2     1 GTP         0.3195
      4 O3G        -0.6104    8.1313    2.4468 O.co2     1 GTP         0.3195
      5 O3B         0.5895    6.4209    3.8140 O.3       1 GTP         0.4672
      6 PB         -0.4034    5.1424    4.0281 P.3       1 GTP        -1.1062
      7 O1B         0.4068    3.8692    3.9260 O.co2     1 GTP         0.3195
      8 O2B        -1.2739    5.4148    5.2351 O.co2     1 GTP         0.3195
      9 O3A        -1.3176    5.2914    2.6847 O.3       1 GTP         0.4672
     10 PA         -2.5512    4.3890    2.1537 P.3       1 GTP        -0.9715
     11 O1A        -3.8625    4.6915    2.8192 O.2       1 GTP         0.2707
     12 O2A        -2.5345    4.6098    0.5511 O.3       1 GTP         0.0326
     13 O5'        -2.0394    2.8623    2.3117 O.3       1 GTP         0.1618
     14 C5'        -0.8811    2.4285    1.6206 C.3       1 GTP         0.1504
     15 C4'        -0.1994    1.3333    2.4288 C.3       1 GTP         0.1111
     16 O4'        -1.1285    0.2356    2.5840 O.3       1 GTP        -0.1436
     17 C3'         1.0324    0.7610    1.7344 C.3       1 GTP         0.1111
     18 O3'         1.9175    0.2377    2.7247 O.3       1 GTP        -0.2728
     19 C2'         0.4468   -0.3802    0.9263 C.3       1 GTP         0.1111
     20 O2'         1.3993   -1.3703    0.5961 O.3       1 GTP        -0.2728
     21 C1'        -0.6159   -0.9100    1.8769 C.3       1 GTP         0.0918
     22 N9         -1.7127   -1.6108    1.2130 N.pl3     1 GTP        -0.0449
     23 C8         -1.7695   -2.9586    0.9546 C.ar      1 GTP         0.4884
     24 N7         -2.8846   -3.3047    0.3416 N.2       1 GTP        -0.5260
     25 C5         -3.5626   -2.1296    0.2052 C.ar      1 GTP         0.4178
     26 C6         -4.8477   -1.8989   -0.3942 C.ar      1 GTP         0.2530
     27 O6         -5.5373   -2.7819   -0.8881 O.2       1 GTP        -0.2755
     28 N1         -5.1895   -0.5407   -0.3318 N.pl3     1 GTP        -0.1604
     29 C2         -4.3899    0.4774    0.2398 C.ar      1 GTP         0.4468
     30 N2         -4.9233    1.7390    0.1898 N.pl3     1 GTP        -0.5618
     31 N3         -3.2159    0.2368    0.7822 N.2       1 GTP        -0.4271
     32 C4         -2.8678   -1.0679    0.7322 C.ar      1 GTP         0.0498
     33 HOA2       -3.1540    4.0918   -0.0058 H         1 GTP         0.2010
     34 H5'        -1.1757    2.0497    0.6364 H         1 GTP        -0.0393
     35 H5''       -0.2069    3.2809    1.4872 H         1 GTP        -0.0393
     36 H4'         0.0402    1.7079    3.4342 H         1 GTP        -0.0393
     37 H3'         1.5907    1.4859    1.1353 H         1 GTP        -0.0393
     38 HO3'        2.1521    0.9800    3.3017 H         1 GTP         0.2010
     39 H2'        -0.0017    0.0018    0.0005 H         1 GTP        -0.0393
     40 HO2'        0.9369   -2.0558    0.0825 H         1 GTP         0.2010
     41 H1'        -0.1998   -1.6319    2.6178 H         1 GTP        -0.0393
     42 H8         -0.9713   -3.6323    1.2352 H         1 GTP        -0.1369
     43 HN1        -6.0831   -0.2651   -0.7290 H         1 GTP         0.0865
     44 HN21       -4.3985    2.4878    0.5788 H         1 GTP         0.2048
     45 HN22       -5.8145    1.8572   -0.2335 H         1 GTP         0.2048
@<TRIPOS>BOND
     1    1    2 2
     2    1    3 1
     3    1    4 1
     4    1    5 1
     5    5    6 1
     6    6    7 2
     7    6    8 1
     8    6    9 1
     9    9   10 1
    10   10   11 2
    11   10   12 1
    12   10   13 1
    13   12   33 1
    14   13   14 1
    15   14   15 1
    16   14   34 1
    17   14   35 1
    18   15   16 1
    19   15   17 1
    20   15   36 1
    21   16   21 1
    22   17   18 1
    23   17   19 1
    24   17   37 1
    25   18   38 1
    26   19   20 1
    27   19   21 1
    28   19   39 1
    29   20   40 1
    30   21   22 1
    31   21   41 1
    32   22   23 ar
    33   22   32 ar
    34   23   24 ar
    35   23   42 1
    36   24   25 ar
    37   25   26 ar
    38   25   32 ar
    39   26   27 2
    40   26   28 ar
    41   28   29 ar
    42   28   43 1
    43   29   30 1
    44   29   31 ar
    45   30   44 1
    46   30   45 1
    47   31   32 ar
@<TRIPOS>SUBSTRUCTURE
     1 GTP         1 GROUP 0 A     ****
@<TRIPOS>MOLECULE
[[[5-(2-amino-6-oxo-1~{H}-purin-9-yl)-3,4-dihydroxy-tetrahydrofuran-2-yl]methoxy-hydroxy-phosphoryl]oxy-oxido-phosphoryl] phosphate
   45    47     1     0     0
SMALL
USER_CHARGES

@<TRIPOS>ATOM
      1 PG         -2.4248    6.7037   -2.4019 P.3       1 GTP        -1.1921
      2 O1G        -2.5096    8.1440   -1.9082 O.co2     1 GTP         0.3195
      3 O2G        -1.6038    6.5212   -3.6737 O.co2     1 GTP         0.3195
      4 O3G        -3.7608    5.9677   -2.4129 O.co2     1 GTP         0.3195
      5 O3B        -1.5579    5.9223   -1.2383 O.3       1 GTP         0.4672
      6 PB         -1.8284    5.7061    0.3574 P.3       1 GTP        -1.1062
      7 O1B        -0.5081    5.4473    1.0484 O.co2     1 GTP         0.3195
      8 O2B        -2.7532    6.8041    0.8347 O.co2     1 GTP         0.3195
      9 O3A        -2.6701    4.3095    0.2947 O.3       1 GTP         0.4672
     10 PA         -3.3127    3.4213    1.4847 P.3       1 GTP        -0.9715
     11 O1A        -4.3354    4.1490    2.3084 O.2       1 GTP         0.2707
     12 O2A        -3.8613    2.0987    0.7316 O.3       1 GTP         0.0326
     13 O5'        -2.0394    2.8623    2.3117 O.3       1 GTP         0.1618
     14 C5'        -0.8811    2.4285    1.6206 C.3       1 GTP         0.1504
     15 C4'        -0.1994    1.3333    2.4288 C.3       1 GTP         0.1111
     16 O4'        -1.1285    0.2356    2.5840 O.3       1 GTP        -0.1436
     17 C3'         1.0324    0.7610    1.7344 C.3       1 GTP         0.1111
     18 O3'         1.9175    0.2377    2.7247 O.3       1 GTP        -0.2728
     19 C2'         0.4468   -0.3802    0.9263 C.3       1 GTP         0.1111
     20 O2'         1.3993   -1.3703    0.5961 O.3       1 GTP        -0.2728
     21 C1'        -0.6159   -0.9100    1.8769 C.3       1 GTP         0.0918
     22 N9         -1.7127   -1.6108    1.2130 N.pl3     1 GTP        -0.0449
     23 C8         -2.5489   -1.0812    0.2607 C.ar      1 GTP         0.4884
     24 N7         -3.4468   -1.9516   -0.1576 N.2       1 GTP        -0.5260
     25 C5         -3.1696   -3.0787    0.5579 C.ar      1 GTP         0.4178
     26 C6         -3.8307   -4.3536    0.5166 C.ar      1 GTP         0.2530
     27 O6         -4.7841   -4.6033   -0.2101 O.2       1 GTP        -0.2755
     28 N1         -3.2356   -5.2522    1.4132 N.pl3     1 GTP        -0.1604
     29 C2         -2.1338   -4.9602    2.2517 C.ar      1 GTP         0.4468
     30 N2         -1.7156   -5.9923    3.0507 N.pl3     1 GTP        -0.5618
     31 N3         -1.5477   -3.7827    2.2686 N.2       1 GTP        -0.4271
     32 C4         -2.1070   -2.9013    1.4104 C.ar      1 GTP         0.0498
     33 HOA2       -4.2293    1.3651    1.2688 H         1 GTP         0.2010
     34 H5'        -1.1757    2.0497    0.6364 H         1 GTP        -0.0393
     35 H5''       -0.2069    3.2809    1.4872 H         1 GTP        -0.0393
     36 H4'         0.0402    1.7079    3.4342 H         1 GTP        -0.0393
     37 H3'         1.5907    1.4859    1.1353 H         1 GTP        -0.0393
     38 HO3'        2.1521    0.9800    3.3017 H         1 GTP         0.2010
     39 H2'        -0.0017    0.0018    0.0005 H         1 GTP        -0.0393
     40 HO2'        0.9369   -2.0558    0.0825 H         1 GTP         0.2010
     41 H1'        -0.1998   -1.6319    2.6178 H         1 GTP        -0.0393
     42 H8         -2.4545   -0.0604   -0.0844 H         1 GTP        -0.1369
     43 HN1        -3.6270   -6.1884    1.4651 H         1 GTP         0.0865
     44 HN21       -0.9445   -5.8354    3.6574 H         1 GTP         0.2048
     45 HN22       -2.1993   -6.8585    2.9930 H         1 GTP         0.2048
@<TRIPOS>BOND
     1    1    2 2
     2    1    3 1
     3    1    4 1
     4    1    5 1
     5    5    6 1
     6    6    7 2
     7    6    8 1
     8    6    9 1
     9    9   10 1
    10   10   11 2
    11   10   12 1
    12   10   13 1
    13   12   33 1
    14   13   14 1
    15   14   15 1
    16   14   34 1
    17   14   35 1
    18   15   16 1
    19   15   17 1
    20   15   36 1
    21   16   21 1
    22   17   18 1
    23   17   19 1
    24   17   37 1
    25   18   38 1
    26   19   20 1
    27   19   21 1
    28   19   39 1
    29   20   40 1
    30   21   22 1
    31   21   41 1
    32   22   23 ar
    33   22   32 ar
    34   23   24 ar
    35   23   42 1
    36   24   25 ar
    37   25   26 ar
    38   25   32 ar
    39   26   27 2
    40   26   28 ar
    41   28   29 ar
    42   28   43 1
    43   29   30 1
    44   29   31 ar
    45   30   44 1
    46   30   45 1
    47   31   32 ar
@<TRIPOS>SUBSTRUCTURE
     1 GTP         1 GROUP 0 A     ****
@<TRIPOS>MOLECULE
[[[5-(2-amino-6-oxo-1~{H}-purin-9-yl)-3,4-dihydroxy-tetrahydrofuran-2-yl]methoxy-hydroxy-phosphoryl]oxy-oxido-phosphoryl] phosphate
   45    47     1     0     0
SMALL
USER_CHARGES

@<TRIPOS>ATOM
      1 PG          1.6512    6.7958    2.6107 P.3       1 GTP        -1.1921
      2 O1G         0.7908    6.8630    1.3535 O.co2     1 GTP         0.3195
      3 O2G         2.2504    8.1319    3.0359 O.co2     1 GTP         0.3195
      4 O3G         2.6419    5.6361    2.6281 O.co2     1 GTP         0.3195
      5 O3B         0.5895    6.4209    3.8140 O.3       1 GTP         0.4672
      6 PB         -0.4034    5.1424    4.0281 P.3       1 GTP        -1.1062
      7 O1B         0.4068    3.8692    3.9260 O.co2     1 GTP         0.3195
      8 O2B        -1.2739    5.4148    5.2351 O.co2     1 GTP         0.3195
      9 O3A        -1.3176    5.2914    2.6847 O.3       1 GTP         0.4672
     10 PA         -2.5512    4.3890    2.1537 P.3       1 GTP        -0.9715
     11 O1A        -3.8625    4.6915    2.8192 O.2       1 GTP         0.2707
     12 O2A        -2.5345    4.6098    0.5511 O.3       1 GTP         0.0326
     13 O5'        -2.0394    2.8623    2.3117 O.3       1 GTP         0.1618
     14 C5'        -0.8811    2.4285    1.6206 C.3       1 GTP         0.1504
     15 C4'        -0.1994    1.3333    2.4288 C.3       1 GTP         0.1111
     16 O4'        -1.1285    0.2356    2.5840 O.3       1 GTP        -0.1436
     17 C3'         1.0324    0.7610    1.7344 C.3       1 GTP         0.1111
     18 O3'         1.9175    0.2377    2.7247 O.3       1 GTP        -0.2728
     19 C2'         0.4468   -0.3802    0.9263 C.3       1 GTP         0.1111
     20 O2'         1.3993   -1.3703    0.5961 O.3       1 GTP        -0.2728
     21 C1'        -0.6159   -0.9100    1.8769 C.3       1 GTP         0.0918
     22 N9         -1.7127   -1.6108    1.2130 N.pl3     1 GTP        -0.0449
     23 C8         -2.5489   -1.0812    0.2607 C.ar      1 GTP         0.4884
     24 N7         -3.4468   -1.9516   -0.1576 N.2       1 GTP        -0.5260
     25 C5         -3.1696   -3.0787    0.5579 C.ar      1 GTP         0.4178
     26 C6         -3.8307   -4.3536    0.5166 C.ar      1 GTP         0.2530
     27 O6         -4.7841   -4.6033   -0.2101 O.2       1 GTP        -0.2755
     28 N1         -3.2356   -5.2522    1.4132 N.pl3     1 GTP        -0.1604
     29 C2         -2.1338   -4.9602    2.2517 C.ar      1 GTP         0.4468
     30 N2         -1.7156   -5.9923    3.0507 N.pl3     1 GTP        -0.5618
     31 N3         -1.5477   -3.7827    2.2686 N.2       1 GTP        -0.4271
     32 C4         -2.1070   -2.9013    1.4104 C.ar      1 GTP         0.0498
     33 HOA2       -2.7276    5.5023    0.1931 H         1 GTP         0.2010
     34 H5'        -1.1757    2.0497    0.6364 H         1 GTP        -0.0393
     35 H5''       -0.2069    3.2809    1.4872 H         1 GTP        -0.0393
     36 H4'         0.0402    1.7079    3.4342 H         1 GTP        -0.0393
     37 H3'         1.5907    1.4859    1.1353 H         1 GTP        -0.0393
     38 HO3'        2.1521    0.9800    3.3017 H         1 GTP         0.2010
     39 H2'        -0.0017    0.0018    0.0005 H         1 GTP        -0.0393
     40 HO2'        2.0953   -0.9375    0.0709 H         1 GTP         0.2010
     41 H1'        -0.1998   -1.6319    2.6178 H         1 GTP        -0.0393
     42 H8         -2.4545   -0.0604   -0.0844 H         1 GTP        -0.1369
     43 HN1        -3.6270   -6.1884    1.4651 H         1 GTP         0.0865
     44 HN21       -0.9445   -5.8354    3.6574 H         1 GTP         0.2048
     45 HN22       -2.1993   -6.8585    2.9930 H         1 GTP         0.2048
@<TRIPOS>BOND
     1    1    2 2
     2    1    3 1
     3    1    4 1
     4    1    5 1
     5    5    6 1
     6    6    7 2
     7    6    8 1
     8    6    9 1
     9    9   10 1
    10   10   11 2
    11   10   12 1
    12   10   13 1
    13   12   33 1
    14   13   14 1
    15   14   15 1
    16   14   34 1
    17   14   35 1
    18   15   16 1
    19   15   17 1
    20   15   36 1
    21   16   21 1
    22   17   18 1
    23   17   19 1
    24   17   37 1
    25   18   38 1
    26   19   20 1
    27   19   21 1
    28   19   39 1
    29   20   40 1
    30   21   22 1
    31   21   41 1
    32   22   23 ar
    33   22   32 ar
    34   23   24 ar
    35   23   42 1
    36   24   25 ar
    37   25   26 ar
    38   25   32 ar
    39   26   27 2
    40   26   28 ar
    41   28   29 ar
    42   28   43 1
    43   29   30 1
    44   29   31 ar
    45   30   44 1
    46   30   45 1
    47   31   32 ar
@<TRIPOS>SUBSTRUCTURE
     1 GTP         1 GROUP 0 A     ****
@<TRIPOS>MOLECULE
[[[5-(2-amino-6-oxo-1~{H}-purin-9-yl)-3,4-dihydroxy-tetrahydrofuran-2-yl]methoxy-hydroxy-phosphoryl]oxy-oxido-phosphoryl] phosphate
   45    47     1     0     0
SMALL
USER_CHARGES

@<TRIPOS>ATOM
      1 PG          0.3354    7.4768    3.6698 P.3       1 GTP        -1.1921
      2 O1G         0.5798    8.7691    2.8979 O.co2     1 GTP         0.3195
      3 O2G        -0.5657    7.6328    4.8898 O.co2     1 GTP         0.3195
      4 O3G         1.5948    6.6557    3.9274 O.co2     1 GTP         0.3195
      5 O3B        -0.5369    6.5392    2.6326 O.3       1 GTP         0.4672
      6 PB         -0.2029    5.9703    1.1390 P.3       1 GTP        -1.1062
      7 O1B        -0.1209    7.1347    0.1773 O.co2     1 GTP         0.3195
      8 O2B         0.9310    4.9753    1.2531 O.co2     1 GTP         0.3195
      9 O3A        -1.5853    5.1512    0.8542 O.3       1 GTP         0.4672
     10 PA         -2.5918    4.4091    1.8810 P.3       1 GTP        -0.9715
     11 O1A        -3.1931    5.3178    2.9137 O.2       1 GTP         0.2707
     12 O2A        -3.6618    3.6740    0.9155 O.3       1 GTP         0.0326
     13 O5'        -1.7333    3.1724    2.4738 O.3       1 GTP         0.1618
     14 C5'        -0.8811    2.4285    1.6206 C.3       1 GTP         0.1504
     15 C4'        -0.1994    1.3333    2.4288 C.3       1 GTP         0.1111
     16 O4'        -1.1285    0.2356    2.5840 O.3       1 GTP        -0.1436
     17 C3'         1.0324    0.7610    1.7344 C.3       1 GTP         0.1111
     18 O3'         1.9175    0.2377    2.7247 O.3       1 GTP        -0.2728
     19 C2'         0.4468   -0.3802    0.9263 C.3       1 GTP         0.1111
     20 O2'         1.3993   -1.3703    0.5961 O.3       1 GTP        -0.2728
     21 C1'        -0.6159   -0.9100    1.8769 C.3       1 GTP         0.0918
     22 N9         -1.7127   -1.6108    1.2130 N.pl3     1 GTP        -0.0449
     23 C8         -2.8667   -1.0365    0.7385 C.ar      1 GTP         0.4884
     24 N7         -3.6757   -1.9196    0.1868 N.2       1 GTP        -0.5260
     25 C5         -3.0088   -3.1018    0.3164 C.ar      1 GTP         0.4178
     26 C6         -3.4148   -4.4130   -0.1079 C.ar      1 GTP         0.2530
     27 O6         -4.4753   -4.6480   -0.6732 O.2       1 GTP        -0.2755
     28 N1         -2.4377   -5.3653    0.2144 N.pl3     1 GTP        -0.1604
     29 C2         -1.2132   -5.0902    0.8680 C.ar      1 GTP         0.4468
     30 N2         -0.4066   -6.1772    1.0834 N.pl3     1 GTP        -0.5618
     31 N3         -0.8672   -3.8786    1.2457 N.2       1 GTP        -0.4271
     32 C4         -1.7966   -2.9451    0.9439 C.ar      1 GTP         0.0498
     33 HOA2       -4.2568    4.2231    0.3619 H         1 GTP         0.2010
     34 H5'        -1.4792    1.9919    0.8140 H         1 GTP        -0.0393
     35 H5''       -0.1359    3.1032    1.1865 H         1 GTP        -0.0393
     36 H4'         0.0402    1.7079    3.4342 H         1 GTP        -0.0393
     37 H3'         1.5907    1.4859    1.1353 H         1 GTP        -0.0393
     38 HO3'        2.1521    0.9800    3.3017 H         1 GTP         0.2010
     39 H2'        -0.0017    0.0018    0.0005 H         1 GTP        -0.0393
     40 HO2'        2.0953   -0.9375    0.0709 H         1 GTP         0.2010
     41 H1'        -0.1998   -1.6319    2.6178 H         1 GTP        -0.0393
     42 H8         -3.0589    0.0244    0.8247 H         1 GTP        -0.1369
     43 HN1        -2.6238   -6.3307   -0.0420 H         1 GTP         0.0865
     44 HN21        0.4646   -6.0341    1.5394 H         1 GTP         0.2048
     45 HN22       -0.7235   -7.0673    0.7753 H         1 GTP         0.2048
@<TRIPOS>BOND
     1    1    2 2
     2    1    3 1
     3    1    4 1
     4    1    5 1
     5    5    6 1
     6    6    7 2
     7    6    8 1
     8    6    9 1
     9    9   10 1
    10   10   11 2
    11   10   12 1
    12   10   13 1
    13   12   33 1
    14   13   14 1
    15   14   15 1
    16   14   34 1
    17   14   35 1
    18   15   16 1
    19   15   17 1
    20   15   36 1
    21   16   21 1
    22   17   18 1
    23   17   19 1
    24   17   37 1
    25   18   38 1
    26   19   20 1
    27   19   21 1
    28   19   39 1
    29   20   40 1
    30   21   22 1
    31   21   41 1
    32   22   23 ar
    33   22   32 ar
    34   23   24 ar
    35   23   42 1
    36   24   25 ar
    37   25   26 ar
    38   25   32 ar
    39   26   27 2
    40   26   28 ar
    41   28   29 ar
    42   28   43 1
    43   29   30 1
    44   29   31 ar
    45   30   44 1
    46   30   45 1
    47   31   32 ar
@<TRIPOS>SUBSTRUCTURE
     1 GTP         1 GROUP 0 A     ****
@<TRIPOS>MOLECULE
[[[5-(2-amino-6-oxo-1~{H}-purin-9-yl)-3,4-dihydroxy-tetrahydrofuran-2-yl]methoxy-hydroxy-phosphoryl]oxy-oxido-phosphoryl] phosphate
   45    47     1     0     0
SMALL
USER_CHARGES

@<TRIPOS>ATOM
      1 PG          2.5477    4.6306    1.6524 P.3       1 GTP        -1.1921
      2 O1G         2.7145    4.5009    3.1627 O.co2     1 GTP         0.3195
      3 O2G         2.8738    3.3621    0.8716 O.co2     1 GTP         0.3195
      4 O3G         3.1587    5.8980    1.0633 O.co2     1 GTP         0.3195
      5 O3B         0.9276    4.8406    1.4358 O.3       1 GTP         0.4672
      6 PB         -0.1020    5.9858    1.9784 P.3       1 GTP        -1.1062
      7 O1B        -0.2155    5.8711    3.4822 O.co2     1 GTP         0.3195
      8 O2B         0.2635    7.3003    1.3247 O.co2     1 GTP         0.3195
      9 O3A        -1.4837    5.4378    1.3049 O.3       1 GTP         0.4672
     10 PA         -2.5918    4.4091    1.8810 P.3       1 GTP        -0.9715
     11 O1A        -3.5610    5.0295    2.8451 O.2       1 GTP         0.2707
     12 O2A        -3.2642    3.7761    0.5527 O.3       1 GTP         0.0326
     13 O5'        -1.7333    3.1724    2.4738 O.3       1 GTP         0.1618
     14 C5'        -0.8811    2.4285    1.6206 C.3       1 GTP         0.1504
     15 C4'        -0.1994    1.3333    2.4288 C.3       1 GTP         0.1111
     16 O4'        -1.1285    0.2356    2.5840 O.3       1 GTP        -0.1436
     17 C3'         1.0324    0.7610    1.7344 C.3       1 GTP         0.1111
     18 O3'         1.9175    0.2377    2.7247 O.3       1 GTP        -0.2728
     19 C2'         0.4468   -0.3802    0.9263 C.3       1 GTP         0.1111
     20 O2'         1.3993   -1.3703    0.5961 O.3       1 GTP        -0.2728
     21 C1'        -0.6159   -0.9100    1.8769 C.3       1 GTP         0.0918
     22 N9         -1.7127   -1.6108    1.2130 N.pl3     1 GTP        -0.0449
     23 C8         -2.8667   -1.0365    0.7385 C.ar      1 GTP         0.4884
     24 N7         -3.6757   -1.9196    0.1868 N.2       1 GTP        -0.5260
     25 C5         -3.0088   -3.1018    0.3164 C.ar      1 GTP         0.4178
     26 C6         -3.4148   -4.4130   -0.1079 C.ar      1 GTP         0.2530
     27 O6         -4.4753   -4.6480   -0.6732 O.2       1 GTP        -0.2755
     28 N1         -2.4377   -5.3653    0.2144 N.pl3     1 GTP        -0.1604
     29 C2         -1.2132   -5.0902    0.8680 C.ar      1 GTP         0.4468
     30 N2         -0.4066   -6.1772    1.0834 N.pl3     1 GTP        -0.5618
     31 N3         -0.8672   -3.8786    1.2457 N.2       1 GTP        -0.4271
     32 C4         -1.7966   -2.9451    0.9439 C.ar      1 GTP         0.0498
     33 HOA2       -3.9218    3.0549    0.6513 H         1 GTP         0.2010
     34 H5'        -1.4792    1.9919    0.8140 H         1 GTP        -0.0393
     35 H5''       -0.1359    3.1032    1.1865 H         1 GTP        -0.0393
     36 H4'         0.0402    1.7079    3.4342 H         1 GTP        -0.0393
     37 H3'         1.5907    1.4859    1.1353 H         1 GTP        -0.0393
     38 HO3'        2.6839   -0.1150    2.2479 H         1 GTP         0.2010
     39 H2'        -0.0017    0.0018    0.0005 H         1 GTP        -0.0393
     40 HO2'        0.9369   -2.0558    0.0825 H         1 GTP         0.2010
     41 H1'        -0.1998   -1.6319    2.6178 H         1 GTP        -0.0393
     42 H8         -3.0589    0.0244    0.8247 H         1 GTP        -0.1369
     43 HN1        -2.6238   -6.3307   -0.0420 H         1 GTP         0.0865
     44 HN21        0.4646   -6.0341    1.5394 H         1 GTP         0.2048
     45 HN22       -0.7235   -7.0673    0.7753 H         1 GTP         0.2048
@<TRIPOS>BOND
     1    1    2 2
     2    1    3 1
     3    1    4 1
     4    1    5 1
     5    5    6 1
     6    6    7 2
     7    6    8 1
     8    6    9 1
     9    9   10 1
    10   10   11 2
    11   10   12 1
    12   10   13 1
    13   12   33 1
    14   13   14 1
    15   14   15 1
    16   14   34 1
    17   14   35 1
    18   15   16 1
    19   15   17 1
    20   15   36 1
    21   16   21 1
    22   17   18 1
    23   17   19 1
    24   17   37 1
    25   18   38 1
    26   19   20 1
    27   19   21 1
    28   19   39 1
    29   20   40 1
    30   21   22 1
    31   21   41 1
    32   22   23 ar
    33   22   32 ar
    34   23   24 ar
    35   23   42 1
    36   24   25 ar
    37   25   26 ar
    38   25   32 ar
    39   26   27 2
    40   26   28 ar
    41   28   29 ar
    42   28   43 1
    43   29   30 1
    44   29   31 ar
    45   30   44 1
    46   30   45 1
    47   31   32 ar
@<TRIPOS>SUBSTRUCTURE
     1 GTP         1 GROUP 0 A     ****
@<TRIPOS>MOLECULE
[[[5-(2-amino-6-oxo-1~{H}-purin-9-yl)-3,4-dihydroxy-tetrahydrofuran-2-yl]methoxy-hydroxy-phosphoryl]oxy-oxido-phosphoryl] phosphate
   45    47     1     0     0
SMALL
USER_CHARGES

@<TRIPOS>ATOM
      1 PG         -2.1767    5.9327    6.8955 P.3       1 GTP        -1.1921
      2 O1G        -1.9732    7.0519    5.8799 O.co2     1 GTP         0.3195
      3 O2G        -3.6098    5.7897    7.3963 O.co2     1 GTP         0.3195
      4 O3G        -1.1250    5.8926    7.9996 O.co2     1 GTP         0.3195
      5 O3B        -1.9004    4.5502    6.0422 O.3       1 GTP         0.4672
      6 PB         -0.5882    4.0191    5.2284 P.3       1 GTP        -1.1062
      7 O1B         0.6431    4.6978    5.7861 O.co2     1 GTP         0.3195
      8 O2B        -0.6681    2.5115    5.1319 O.co2     1 GTP         0.3195
      9 O3A        -0.9157    4.6512    3.7600 O.3       1 GTP         0.4672
     10 PA         -2.1747    4.4070    2.7734 P.3       1 GTP        -0.9715
     11 O1A        -3.5015    4.7779    3.3701 O.2       1 GTP         0.2707
     12 O2A        -1.7813    5.2194    1.4308 O.3       1 GTP         0.0326
     13 O5'        -2.0394    2.8623    2.3117 O.3       1 GTP         0.1618
     14 C5'        -0.8811    2.4285    1.6206 C.3       1 GTP         0.1504
     15 C4'        -0.1994    1.3333    2.4288 C.3       1 GTP         0.1111
     16 O4'        -1.1285    0.2356    2.5840 O.3       1 GTP        -0.1436
     17 C3'         1.0324    0.7610    1.7344 C.3       1 GTP         0.1111
     18 O3'         1.9175    0.2377    2.7247 O.3       1 GTP        -0.2728
     19 C2'         0.4468   -0.3802    0.9263 C.3       1 GTP         0.1111
     20 O2'         1.3993   -1.3703    0.5961 O.3       1 GTP        -0.2728
     21 C1'        -0.6159   -0.9100    1.8769 C.3       1 GTP         0.0918
     22 N9         -1.7127   -1.6108    1.2130 N.pl3     1 GTP        -0.0449
     23 C8         -2.8667   -1.0365    0.7385 C.ar      1 GTP         0.4884
     24 N7         -3.6757   -1.9196    0.1868 N.2       1 GTP        -0.5260
     25 C5         -3.0088   -3.1018    0.3164 C.ar      1 GTP         0.4178
     26 C6         -3.4148   -4.4130   -0.1079 C.ar      1 GTP         0.2530
     27 O6         -4.4753   -4.6480   -0.6732 O.2       1 GTP        -0.2755
     28 N1         -2.4377   -5.3653    0.2144 N.pl3     1 GTP        -0.1604
     29 C2         -1.2132   -5.0902    0.8680 C.ar      1 GTP         0.4468
     30 N2         -0.4066   -6.1772    1.0834 N.pl3     1 GTP        -0.5618
     31 N3         -0.8672   -3.8786    1.2457 N.2       1 GTP        -0.4271
     32 C4         -1.7966   -2.9451    0.9439 C.ar      1 GTP         0.0498
     33 HOA2       -1.7042    6.1964    1.4728 H         1 GTP         0.2010
     34 H5'        -1.1757    2.0497    0.6364 H         1 GTP        -0.0393
     35 H5''       -0.2069    3.2809    1.4872 H         1 GTP        -0.0393
     36 H4'         0.0402    1.7079    3.4342 H         1 GTP        -0.0393
     37 H3'         1.5907    1.4859    1.1353 H         1 GTP        -0.0393
     38 HO3'        2.1521    0.9800    3.3017 H         1 GTP         0.2010
     39 H2'        -0.0017    0.0018    0.0005 H         1 GTP        -0.0393
     40 HO2'        0.9369   -2.0558    0.0825 H         1 GTP         0.2010
     41 H1'        -0.1998   -1.6319    2.6178 H         1 GTP        -0.0393
     42 H8         -3.0589    0.0244    0.8247 H         1 GTP        -0.1369
     43 HN1        -2.6238   -6.3307   -0.0420 H         1 GTP         0.0865
     44 HN21        0.4646   -6.0341    1.5394 H         1 GTP         0.2048
     45 HN22       -0.7235   -7.0673    0.7753 H         1 GTP         0.2048
@<TRIPOS>BOND
     1    1    2 2
     2    1    3 1
     3    1    4 1
     4    1    5 1
     5    5    6 1
     6    6    7 2
     7    6    8 1
     8    6    9 1
     9    9   10 1
    10   10   11 2
    11   10   12 1
    12   10   13 1
    13   12   33 1
    14   13   14 1
    15   14   15 1
    16   14   34 1
    17   14   35 1
    18   15   16 1
    19   15   17 1
    20   15   36 1
    21   16   21 1
    22   17   18 1
    23   17   19 1
    24   17   37 1
    25   18   38 1
    26   19   20 1
    27   19   21 1
    28   19   39 1
    29   20   40 1
    30   21   22 1
    31   21   41 1
    32   22   23 ar
    33   22   32 ar
    34   23   24 ar
    35   23   42 1
    36   24   25 ar
    37   25   26 ar
    38   25   32 ar
    39   26   27 2
    40   26   28 ar
    41   28   29 ar
    42   28   43 1
    43   29   30 1
    44   29   31 ar
    45   30   44 1
    46   30   45 1
    47   31   32 ar
@<TRIPOS>SUBSTRUCTURE
     1 GTP         1 GROUP 0 A     ****
@<TRIPOS>MOLECULE
[[[5-(2-amino-6-oxo-1~{H}-purin-9-yl)-3,4-dihydroxy-tetrahydrofuran-2-yl]methoxy-hydroxy-phosphoryl]oxy-oxido-phosphoryl] phosphate
   45    47     1     0     0
SMALL
USER_CHARGES

@<TRIPOS>ATOM
      1 PG          0.9720    5.4602    7.3388 P.3       1 GTP        -1.1921
      2 O1G         1.9854    4.3239    7.4248 O.co2     1 GTP         0.3195
      3 O2G         1.5907    6.8523    7.2753 O.co2     1 GTP         0.3195
      4 O3G        -0.1872    5.3389    8.3227 O.co2     1 GTP         0.3195
      5 O3B         0.2577    5.2612    5.8670 O.3       1 GTP         0.4672
      6 PB         -0.5882    4.0191    5.2284 P.3       1 GTP        -1.1062
      7 O1B         0.3360    2.8349    5.0527 O.co2     1 GTP         0.3195
      8 O2B        -1.8857    3.8853    5.9948 O.co2     1 GTP         0.3195
      9 O3A        -0.9157    4.6512    3.7600 O.3       1 GTP         0.4672
     10 PA         -2.1747    4.4070    2.7734 P.3       1 GTP        -0.9715
     11 O1A        -3.5015    4.7779    3.3701 O.2       1 GTP         0.2707
     12 O2A        -1.7813    5.2194    1.4308 O.3       1 GTP         0.0326
     13 O5'        -2.0394    2.8623    2.3117 O.3       1 GTP         0.1618
     14 C5'        -0.8811    2.4285    1.6206 C.3       1 GTP         0.1504
     15 C4'        -0.1994    1.3333    2.4288 C.3       1 GTP         0.1111
     16 O4'        -1.1285    0.2356    2.5840 O.3       1 GTP        -0.1436
     17 C3'         1.0324    0.7610    1.7344 C.3       1 GTP         0.1111
     18 O3'         1.9175    0.2377    2.7247 O.3       1 GTP        -0.2728
     19 C2'         0.4468   -0.3802    0.9263 C.3       1 GTP         0.1111
     20 O2'         1.3993   -1.3703    0.5961 O.3       1 GTP        -0.2728
     21 C1'        -0.6159   -0.9100    1.8769 C.3       1 GTP         0.0918
     22 N9         -1.7127   -1.6108    1.2130 N.pl3     1 GTP        -0.0449
     23 C8         -2.5489   -1.0812    0.2607 C.ar      1 GTP         0.4884
     24 N7         -3.4468   -1.9516   -0.1576 N.2       1 GTP        -0.5260
     25 C5         -3.1696   -3.0787    0.5579 C.ar      1 GTP         0.4178
     26 C6         -3.8307   -4.3536    0.5166 C.ar      1 GTP         0.2530
     27 O6         -4.7841   -4.6033   -0.2101 O.2       1 GTP        -0.2755
     28 N1         -3.2356   -5.2522    1.4132 N.pl3     1 GTP        -0.1604
     29 C2         -2.1338   -4.9602    2.2517 C.ar      1 GTP         0.4468
     30 N2         -1.7156   -5.9923    3.0507 N.pl3     1 GTP        -0.5618
     31 N3         -1.5477   -3.7827    2.2686 N.2       1 GTP        -0.4271
     32 C4         -2.1070   -2.9013    1.4104 C.ar      1 GTP         0.0498
     33 HOA2       -2.3673    5.1527    0.6470 H         1 GTP         0.2010
     34 H5'        -1.1757    2.0497    0.6364 H         1 GTP        -0.0393
     35 H5''       -0.2069    3.2809    1.4872 H         1 GTP        -0.0393
     36 H4'         0.0402    1.7079    3.4342 H         1 GTP        -0.0393
     37 H3'         1.5907    1.4859    1.1353 H         1 GTP        -0.0393
     38 HO3'        2.6839   -0.1150    2.2479 H         1 GTP         0.2010
     39 H2'        -0.0017    0.0018    0.0005 H         1 GTP        -0.0393
     40 HO2'        2.0953   -0.9375    0.0709 H         1 GTP         0.2010
     41 H1'        -0.1998   -1.6319    2.6178 H         1 GTP        -0.0393
     42 H8         -2.4545   -0.0604   -0.0844 H         1 GTP        -0.1369
     43 HN1        -3.6270   -6.1884    1.4651 H         1 GTP         0.0865
     44 HN21       -0.9445   -5.8354    3.6574 H         1 GTP         0.2048
     45 HN22       -2.1993   -6.8585    2.9930 H         1 GTP         0.2048
@<TRIPOS>BOND
     1    1    2 2
     2    1    3 1
     3    1    4 1
     4    1    5 1
     5    5    6 1
     6    6    7 2
     7    6    8 1
     8    6    9 1
     9    9   10 1
    10   10   11 2
    11   10   12 1
    12   10   13 1
    13   12   33 1
    14   13   14 1
    15   14   15 1
    16   14   34 1
    17   14   35 1
    18   15   16 1
    19   15   17 1
    20   15   36 1
    21   16   21 1
    22   17   18 1
    23   17   19 1
    24   17   37 1
    25   18   38 1
    26   19   20 1
    27   19   21 1
    28   19   39 1
    29   20   40 1
    30   21   22 1
    31   21   41 1
    32   22   23 ar
    33   22   32 ar
    34   23   24 ar
    35   23   42 1
    36   24   25 ar
    37   25   26 ar
    38   25   32 ar
    39   26   27 2
    40   26   28 ar
    41   28   29 ar
    42   28   43 1
    43   29   30 1
    44   29   31 ar
    45   30   44 1
    46   30   45 1
    47   31   32 ar
@<TRIPOS>SUBSTRUCTURE
     1 GTP         1 GROUP 0 A     ****
@<TRIPOS>MOLECULE
[[[5-(2-amino-6-oxo-1~{H}-purin-9-yl)-3,4-dihydroxy-tetrahydrofuran-2-yl]methoxy-hydroxy-phosphoryl]oxy-oxido-phosphoryl] phosphate
   45    47     1     0     0
SMALL
USER_CHARGES

@<TRIPOS>ATOM
      1 PG          1.6043    6.1715    0.6701 P.3       1 GTP        -1.1921
      2 O1G         0.7799    4.9092    0.4407 O.co2     1 GTP         0.3195
      3 O2G         1.3744    7.2700   -0.3621 O.co2     1 GTP         0.3195
      4 O3G         3.0740    5.9092    0.9826 O.co2     1 GTP         0.3195
      5 O3B         1.0119    6.7978    2.0746 O.3       1 GTP         0.4672
      6 PB          0.9235    6.1855    3.5857 P.3       1 GTP        -1.1062
      7 O1B         2.3007    5.7270    4.0108 O.co2     1 GTP         0.3195
      8 O2B         0.1257    7.1454    4.4405 O.co2     1 GTP         0.3195
      9 O3A         0.0035    4.8719    3.2838 O.3       1 GTP         0.4672
     10 PA         -1.4913    4.7595    2.6747 P.3       1 GTP        -0.9715
     11 O1A        -2.5386    5.4639    3.4876 O.2       1 GTP         0.2707
     12 O2A        -1.3348    5.2945    1.1559 O.3       1 GTP         0.0326
     13 O5'        -1.7333    3.1724    2.4738 O.3       1 GTP         0.1618
     14 C5'        -0.8811    2.4285    1.6206 C.3       1 GTP         0.1504
     15 C4'        -0.1994    1.3333    2.4288 C.3       1 GTP         0.1111
     16 O4'        -1.1285    0.2356    2.5840 O.3       1 GTP        -0.1436
     17 C3'         1.0324    0.7610    1.7344 C.3       1 GTP         0.1111
     18 O3'         1.9175    0.2377    2.7247 O.3       1 GTP        -0.2728
     19 C2'         0.4468   -0.3802    0.9263 C.3       1 GTP         0.1111
     20 O2'         1.3993   -1.3703    0.5961 O.3       1 GTP        -0.2728
     21 C1'        -0.6159   -0.9100    1.8769 C.3       1 GTP         0.0918
     22 N9         -1.7127   -1.6108    1.2130 N.pl3     1 GTP        -0.0449
     23 C8         -2.8667   -1.0365    0.7385 C.ar      1 GTP         0.4884
     24 N7         -3.6757   -1.9196    0.1868 N.2       1 GTP        -0.5260
     25 C5         -3.0088   -3.1018    0.3164 C.ar      1 GTP         0.4178
     26 C6         -3.4148   -4.4130   -0.1079 C.ar      1 GTP         0.2530
     27 O6         -4.4753   -4.6480   -0.6732 O.2       1 GTP        -0.2755
     28 N1         -2.4377   -5.3653    0.2144 N.pl3     1 GTP        -0.1604
     29 C2         -1.2132   -5.0902    0.8680 C.ar      1 GTP         0.4468
     30 N2         -0.4066   -6.1772    1.0834 N.pl3     1 GTP        -0.5618
     31 N3         -0.8672   -3.8786    1.2457 N.2       1 GTP        -0.4271
     32 C4         -1.7966   -2.9451    0.9439 C.ar      1 GTP         0.0498
     33 HOA2       -1.0920    6.2330    1.0061 H         1 GTP         0.2010
     34 H5'        -1.4792    1.9919    0.8140 H         1 GTP        -0.0393
     35 H5''       -0.1359    3.1032    1.1865 H         1 GTP        -0.0393
     36 H4'         0.0402    1.7079    3.4342 H         1 GTP        -0.0393
     37 H3'         1.5907    1.4859    1.1353 H         1 GTP        -0.0393
     38 HO3'        2.1521    0.9800    3.3017 H         1 GTP         0.2010
     39 H2'        -0.0017    0.0018    0.0005 H         1 GTP        -0.0393
     40 HO2'        0.9369   -2.0558    0.0825 H         1 GTP         0.2010
     41 H1'        -0.1998   -1.6319    2.6178 H         1 GTP        -0.0393
     42 H8         -3.0589    0.0244    0.8247 H         1 GTP        -0.1369
     43 HN1        -2.6238   -6.3307   -0.0420 H         1 GTP         0.0865
     44 HN21        0.4646   -6.0341    1.5394 H         1 GTP         0.2048
     45 HN22       -0.7235   -7.0673    0.7753 H         1 GTP         0.2048
@<TRIPOS>BOND
     1    1    2 2
     2    1    3 1
     3    1    4 1
     4    1    5 1
     5    5    6 1
     6    6    7 2
     7    6    8 1
     8    6    9 1
     9    9   10 1
    10   10   11 2
    11   10   12 1
    12   10   13 1
    13   12   33 1
    14   13   14 1
    15   14   15 1
    16   14   34 1
    17   14   35 1
    18   15   16 1
    19   15   17 1
    20   15   36 1
    21   16   21 1
    22   17   18 1
    23   17   19 1
    24   17   37 1
    25   18   38 1
    26   19   20 1
    27   19   21 1
    28   19   39 1
    29   20   40 1
    30   21   22 1
    31   21   41 1
    32   22   23 ar
    33   22   32 ar
    34   23   24 ar
    35   23   42 1
    36   24   25 ar
    37   25   26 ar
    38   25   32 ar
    39   26   27 2
    40   26   28 ar
    41   28   29 ar
    42   28   43 1
    43   29   30 1
    44   29   31 ar
    45   30   44 1
    46   30   45 1
    47   31   32 ar
@<TRIPOS>SUBSTRUCTURE
     1 GTP         1 GROUP 0 A     ****
@<TRIPOS>MOLECULE
[[[5-(2-amino-6-oxo-1~{H}-purin-9-yl)-3,4-dihydroxy-tetrahydrofuran-2-yl]methoxy-hydroxy-phosphoryl]oxy-oxido-phosphoryl] phosphate
   45    47     1     0     0
SMALL
USER_CHARGES

@<TRIPOS>ATOM
      1 PG         -2.7013    3.1867    7.1794 P.3       1 GTP        -1.1921
      2 O1G        -2.1343    4.1108    8.2519 O.co2     1 GTP         0.3195
      3 O2G        -4.2164    3.2582    7.0234 O.co2     1 GTP         0.3195
      4 O3G        -2.1465    1.7665    7.2220 O.co2     1 GTP         0.3195
      5 O3B        -2.1140    3.7933    5.7641 O.3       1 GTP         0.4672
      6 PB         -0.5882    4.0191    5.2284 P.3       1 GTP        -1.1062
      7 O1B         0.0778    5.0797    6.0765 O.co2     1 GTP         0.3195
      8 O2B         0.0526    2.6623    5.0361 O.co2     1 GTP         0.3195
      9 O3A        -0.9157    4.6512    3.7600 O.3       1 GTP         0.4672
     10 PA         -2.1747    4.4070    2.7734 P.3       1 GTP        -0.9715
     11 O1A        -3.5015    4.7779    3.3701 O.2       1 GTP         0.2707
     12 O2A        -1.7813    5.2194    1.4308 O.3       1 GTP         0.0326
     13 O5'        -2.0394    2.8623    2.3117 O.3       1 GTP         0.1618
     14 C5'        -0.8811    2.4285    1.6206 C.3       1 GTP         0.1504
     15 C4'        -0.1994    1.3333    2.4288 C.3       1 GTP         0.1111
     16 O4'        -1.1285    0.2356    2.5840 O.3       1 GTP        -0.1436
     17 C3'         1.0324    0.7610    1.7344 C.3       1 GTP         0.1111
     18 O3'         1.9175    0.2377    2.7247 O.3       1 GTP        -0.2728
     19 C2'         0.4468   -0.3802    0.9263 C.3       1 GTP         0.1111
     20 O2'         1.3993   -1.3703    0.5961 O.3       1 GTP        -0.2728
     21 C1'        -0.6159   -0.9100    1.8769 C.3       1 GTP         0.0918
     22 N9         -1.7127   -1.6108    1.2130 N.pl3     1 GTP        -0.0449
     23 C8         -2.5489   -1.0812    0.2607 C.ar      1 GTP         0.4884
     24 N7         -3.4468   -1.9516   -0.1576 N.2       1 GTP        -0.5260
     25 C5         -3.1696   -3.0787    0.5579 C.ar      1 GTP         0.4178
     26 C6         -3.8307   -4.3536    0.5166 C.ar      1 GTP         0.2530
     27 O6         -4.7841   -4.6033   -0.2101 O.2       1 GTP        -0.2755
     28 N1         -3.2356   -5.2522    1.4132 N.pl3     1 GTP        -0.1604
     29 C2         -2.1338   -4.9602    2.2517 C.ar      1 GTP         0.4468
     30 N2         -1.7156   -5.9923    3.0507 N.pl3     1 GTP        -0.5618
     31 N3         -1.5477   -3.7827    2.2686 N.2       1 GTP        -0.4271
     32 C4         -2.1070   -2.9013    1.4104 C.ar      1 GTP         0.0498
     33 HOA2       -1.7042    6.1964    1.4728 H         1 GTP         0.2010
     34 H5'        -1.1757    2.0497    0.6364 H         1 GTP        -0.0393
     35 H5''       -0.2069    3.2809    1.4872 H         1 GTP        -0.0393
     36 H4'         0.0402    1.7079    3.4342 H         1 GTP        -0.0393
     37 H3'         1.5907    1.4859    1.1353 H         1 GTP        -0.0393
     38 HO3'        2.6839   -0.1150    2.2479 H         1 GTP         0.2010
     39 H2'        -0.0017    0.0018    0.0005 H         1 GTP        -0.0393
     40 HO2'        2.0953   -0.9375    0.0709 H         1 GTP         0.2010
     41 H1'        -0.1998   -1.6319    2.6178 H         1 GTP        -0.0393
     42 H8         -2.4545   -0.0604   -0.0844 H         1 GTP        -0.1369
     43 HN1        -3.6270   -6.1884    1.4651 H         1 GTP         0.0865
     44 HN21       -0.9445   -5.8354    3.6574 H         1 GTP         0.2048
     45 HN22       -2.1993   -6.8585    2.9930 H         1 GTP         0.2048
@<TRIPOS>BOND
     1    1    2 2
     2    1    3 1
     3    1    4 1
     4    1    5 1
     5    5    6 1
     6    6    7 2
     7    6    8 1
     8    6    9 1
     9    9   10 1
    10   10   11 2
    11   10   12 1
    12   10   13 1
    13   12   33 1
    14   13   14 1
    15   14   15 1
    16   14   34 1
    17   14   35 1
    18   15   16 1
    19   15   17 1
    20   15   36 1
    21   16   21 1
    22   17   18 1
    23   17   19 1
    24   17   37 1
    25   18   38 1
    26   19   20 1
    27   19   21 1
    28   19   39 1
    29   20   40 1
    30   21   22 1
    31   21   41 1
    32   22   23 ar
    33   22   32 ar
    34   23   24 ar
    35   23   42 1
    36   24   25 ar
    37   25   26 ar
    38   25   32 ar
    39   26   27 2
    40   26   28 ar
    41   28   29 ar
    42   28   43 1
    43   29   30 1
    44   29   31 ar
    45   30   44 1
    46   30   45 1
    47   31   32 ar
@<TRIPOS>SUBSTRUCTURE
     1 GTP         1 GROUP 0 A     ****
@<TRIPOS>MOLECULE
[[[5-(2-amino-6-oxo-1~{H}-purin-9-yl)-3,4-dihydroxy-tetrahydrofuran-2-yl]methoxy-hydroxy-phosphoryl]oxy-oxido-phosphoryl] phosphate
   45    47     1     0     0
SMALL
USER_CHARGES

@<TRIPOS>ATOM
      1 PG         -4.1076    4.6032   -0.8188 P.3       1 GTP        -1.1921
      2 O1G        -3.4602    3.8400    0.3318 O.co2     1 GTP         0.3195
      3 O2G        -5.1365    5.6418   -0.3855 O.co2     1 GTP         0.3195
      4 O3G        -4.5643    3.7199   -1.9754 O.co2     1 GTP         0.3195
      5 O3B        -2.8778    5.4893   -1.4657 O.3       1 GTP         0.4672
      6 PB         -1.4515    5.0483   -2.1269 P.3       1 GTP        -1.1062
      7 O1B        -1.7097    4.0367   -3.2213 O.co2     1 GTP         0.3195
      8 O2B        -0.6481    6.3007   -2.4002 O.co2     1 GTP         0.3195
      9 O3A        -0.7944    4.2793   -0.8464 O.3       1 GTP         0.4672
     10 PA         -0.4427    4.8271    0.6349 P.3       1 GTP        -0.9715
     11 O1A         0.5394    5.9624    0.6510 O.2       1 GTP         0.2707
     12 O2A        -1.8876    5.1681    1.2779 O.3       1 GTP         0.0326
     13 O5'         0.0166    3.5128    1.4591 O.3       1 GTP         0.1618
     14 C5'        -0.8811    2.4285    1.6206 C.3       1 GTP         0.1504
     15 C4'        -0.1994    1.3333    2.4288 C.3       1 GTP         0.1111
     16 O4'        -1.1285    0.2356    2.5840 O.3       1 GTP        -0.1436
     17 C3'         1.0324    0.7610    1.7344 C.3       1 GTP         0.1111
     18 O3'         1.9175    0.2377    2.7247 O.3       1 GTP        -0.2728
     19 C2'         0.4468   -0.3802    0.9263 C.3       1 GTP         0.1111
     20 O2'         1.3993   -1.3703    0.5961 O.3       1 GTP        -0.2728
     21 C1'        -0.6159   -0.9100    1.8769 C.3       1 GTP         0.0918
     22 N9         -1.7127   -1.6108    1.2130 N.pl3     1 GTP        -0.0449
     23 C8         -1.7695   -2.9586    0.9546 C.ar      1 GTP         0.4884
     24 N7         -2.8846   -3.3047    0.3416 N.2       1 GTP        -0.5260
     25 C5         -3.5626   -2.1296    0.2052 C.ar      1 GTP         0.4178
     26 C6         -4.8477   -1.8989   -0.3942 C.ar      1 GTP         0.2530
     27 O6         -5.5373   -2.7819   -0.8881 O.2       1 GTP        -0.2755
     28 N1         -5.1895   -0.5407   -0.3318 N.pl3     1 GTP        -0.1604
     29 C2         -4.3899    0.4774    0.2398 C.ar      1 GTP         0.4468
     30 N2         -4.9233    1.7390    0.1898 N.pl3     1 GTP        -0.5618
     31 N3         -3.2159    0.2368    0.7822 N.2       1 GTP        -0.4271
     32 C4         -2.8678   -1.0679    0.7322 C.ar      1 GTP         0.0498
     33 HOA2       -1.9352    5.4469    2.2171 H         1 GTP         0.2010
     34 H5'        -1.7777    2.7838    2.1390 H         1 GTP        -0.0393
     35 H5''       -1.1661    2.0530    0.6323 H         1 GTP        -0.0393
     36 H4'         0.0402    1.7079    3.4342 H         1 GTP        -0.0393
     37 H3'         1.5907    1.4859    1.1353 H         1 GTP        -0.0393
     38 HO3'        2.6839   -0.1150    2.2479 H         1 GTP         0.2010
     39 H2'        -0.0017    0.0018    0.0005 H         1 GTP        -0.0393
     40 HO2'        0.9369   -2.0558    0.0825 H         1 GTP         0.2010
     41 H1'        -0.1998   -1.6319    2.6178 H         1 GTP        -0.0393
     42 H8         -0.9713   -3.6323    1.2352 H         1 GTP        -0.1369
     43 HN1        -6.0831   -0.2651   -0.7290 H         1 GTP         0.0865
     44 HN21       -4.3985    2.4878    0.5788 H         1 GTP         0.2048
     45 HN22       -5.8145    1.8572   -0.2335 H         1 GTP         0.2048
@<TRIPOS>BOND
     1    1    2 2
     2    1    3 1
     3    1    4 1
     4    1    5 1
     5    5    6 1
     6    6    7 2
     7    6    8 1
     8    6    9 1
     9    9   10 1
    10   10   11 2
    11   10   12 1
    12   10   13 1
    13   12   33 1
    14   13   14 1
    15   14   15 1
    16   14   34 1
    17   14   35 1
    18   15   16 1
    19   15   17 1
    20   15   36 1
    21   16   21 1
    22   17   18 1
    23   17   19 1
    24   17   37 1
    25   18   38 1
    26   19   20 1
    27   19   21 1
    28   19   39 1
    29   20   40 1
    30   21   22 1
    31   21   41 1
    32   22   23 ar
    33   22   32 ar
    34   23   24 ar
    35   23   42 1
    36   24   25 ar
    37   25   26 ar
    38   25   32 ar
    39   26   27 2
    40   26   28 ar
    41   28   29 ar
    42   28   43 1
    43   29   30 1
    44   29   31 ar
    45   30   44 1
    46   30   45 1
    47   31   32 ar
@<TRIPOS>SUBSTRUCTURE
     1 GTP         1 GROUP 0 A     ****
