@<TRIPOS>MOLECULE
GTP
43   45    1
SMALL
USER_CHARGES


@<TRIPOS>ATOM
      1 PG          4.5660   31.3910   21.6350 P.3       1 GTP         0.0000 
      2 O1G         4.6130   31.9070   23.0690 O.co2     1 GTP         0.0000 
      3 O2G         3.8920   32.3190   20.6310 O.co2     1 GTP         0.0000 
      4 O3G         4.1430   30.0120   21.6130 O.co2     1 GTP         0.0000 
      5 O3B         6.1600   31.3600   21.2280 O.3       1 GTP         0.0000 
      6 PB          6.8770   31.2020   19.7450 P.3       1 GTP         0.0000 
      7 O1B         7.0790   29.7090   19.4730 O.co2     1 GTP         0.0000 
      8 O2B         6.1250   31.9700   18.7490 O.co2     1 GTP         0.0000 
      9 O3A         8.2510   31.8900   20.0030 O.3       1 GTP         0.0000 
     10 PA          8.8460   33.2610   19.4110 P.3       1 GTP         0.0000 
     11 O1A         8.8880   33.2560   17.9570 O.co2     1 GTP         0.0000 
     12 O2A         8.1050   34.3980   20.1290 O.co2     1 GTP         0.0000 
     13 O5'        10.4300   33.1530   19.9000 O.3       1 GTP         0.0000 
     14 C5'        10.5490   33.0440   21.3780 C.3       1 GTP         0.0000 
     15 C4'        12.0460   33.6180   21.4740 C.3       1 GTP         0.0000 
     16 O4'        13.0520   32.8300   20.8180 O.3       1 GTP         0.0000 
     17 C3'        12.3070   34.9690   21.0570 C.3       1 GTP         0.0000 
     18 O3'        13.1090   35.6720   21.9710 O.3       1 GTP         0.0000 
     19 C2'        12.8390   34.9710   19.5930 C.3       1 GTP         0.0000 
     20 O2'        13.6720   35.9610   19.3550 O.3       1 GTP         0.0000 
     21 C1'        13.8460   33.6220   19.9270 C.3       1 GTP         0.0000 
     22 N9         14.0010   32.8330   18.6490 N.pl3     1 GTP         0.0000 
     23 C8         12.9340   32.4520   17.8480 C.ar      1 GTP         0.0000 
     24 N7         13.6400   31.7980   16.8990 N.2       1 GTP         0.0000 
     25 C5         15.0290   31.8890   17.0010 C.ar      1 GTP         0.0000 
     26 C6         15.8990   31.3940   16.2380 C.ar      1 GTP         0.0000 
     27 O6         15.9820   30.6800   15.1910 O.co2     1 GTP         0.0000 
     28 N1         17.2740   31.6280   16.8000 N.ar      1 GTP         0.0000 
     29 C2         17.3040   32.2950   17.8960 C.ar      1 GTP         0.0000 
     30 N2         18.6770   32.4500   18.4750 N.pl3     1 GTP         0.0000 
     31 N3         16.3840   32.7360   18.7390 N.ar      1 GTP         0.0000 
     32 C4         15.2180   32.5170   18.1350 C.ar      1 GTP         0.0000 
     33 H5'         9.7718   33.6593   21.8548 H         1 GTP         0.0000 
     34 H5''       10.4216   31.9939   21.6797 H         1 GTP         0.0000 
     35 H4'        12.2583   33.6282   22.5533 H         1 GTP         0.0000 
     36 H3'        11.3699   35.5332   21.1732 H         1 GTP         0.0000 
     37 HO3'       12.8165   35.7279   23.0299 H         1 GTP         0.0000 
     38 H2'        12.1431   35.1631   18.7630 H         1 GTP         0.0000 
     39 HO2'       13.2830   36.9601   19.1092 H         1 GTP         0.0000 
     40 H1'        14.8453   33.7628   20.3647 H         1 GTP         0.0000 
     41 H8         11.8730   32.6240   17.9510 H         1 GTP         0.0000 
     42 HN21       19.5568   32.1296   17.8977 H         1 GTP         0.0000 
     43 HN22       18.8054   32.8843   19.4775 H         1 GTP         0.0000 
@<TRIPOS>BOND
     1    1    2 2    
     2    1    3 1    
     3    1    4 1    
     4    1    5 1    
     5    5    6 1    
     6    6    7 2    
     7    6    8 1    
     8    6    9 1    
     9    9   10 1    
    10   10   11 2    
    11   10   12 1    
    12   10   13 1    
    13   13   14 1    
    14   14   15 1    
    15   14   33 1    
    16   14   34 1    
    17   15   16 1    
    18   15   17 1    
    19   15   35 1    
    20   16   21 1    
    21   17   18 1    
    22   17   19 1    
    23   17   36 1    
    24   18   37 1    
    25   19   20 1    
    26   19   21 1    
    27   19   38 1    
    28   20   39 1    
    29   21   22 1    
    30   21   40 1    
    31   22   23 ar   
    32   22   32 ar   
    33   23   24 ar   
    34   23   41 1    
    35   24   25 ar   
    36   25   26 ar   
    37   25   32 ar   
    38   26   27 1    
    39   26   28 ar   
    40   28   29 ar   
    41   29   30 1    
    42   29   31 ar   
    43   30   42 1    
    44   30   43 1    
    45   31   32 ar   
@<TRIPOS>SUBSTRUCTURE
     1 GTP         1 GROUP             0       ****    0 ROOT    
@<TRIPOS>MOLECULE
GTP
44   46    1
SMALL
USER_CHARGES


@<TRIPOS>ATOM
      1 PG          4.5660   31.3910   21.6350 P.3       1 GTP         0.0000 
      2 O1G         4.6130   31.9070   23.0690 O.co2     1 GTP         0.0000 
      3 O2G         3.8920   32.3190   20.6310 O.co2     1 GTP         0.0000 
      4 O3G         4.1430   30.0120   21.6130 O.co2     1 GTP         0.0000 
      5 O3B         6.1600   31.3600   21.2280 O.3       1 GTP         0.0000 
      6 PB          6.8770   31.2020   19.7450 P.3       1 GTP         0.0000 
      7 O1B         7.0790   29.7090   19.4730 O.co2     1 GTP         0.0000 
      8 O2B         6.1250   31.9700   18.7490 O.co2     1 GTP         0.0000 
      9 O3A         8.2510   31.8900   20.0030 O.3       1 GTP         0.0000 
     10 PA          8.8460   33.2610   19.4110 P.3       1 GTP         0.0000 
     11 O1A         8.8880   33.2560   17.9570 O.co2     1 GTP         0.0000 
     12 O2A         8.1050   34.3980   20.1290 O.co2     1 GTP         0.0000 
     13 O5'        10.4300   33.1530   19.9000 O.3       1 GTP         0.0000 
     14 C5'        10.5490   33.0440   21.3780 C.3       1 GTP         0.0000 
     15 C4'        12.0460   33.6180   21.4740 C.3       1 GTP         0.0000 
     16 O4'        13.0520   32.8300   20.8180 O.3       1 GTP         0.0000 
     17 C3'        12.3070   34.9690   21.0570 C.3       1 GTP         0.0000 
     18 O3'        13.1090   35.6720   21.9710 O.3       1 GTP         0.0000 
     19 C2'        12.8390   34.9710   19.5930 C.3       1 GTP         0.0000 
     20 O2'        13.6720   35.9610   19.3550 O.3       1 GTP         0.0000 
     21 C1'        13.8460   33.6220   19.9270 C.3       1 GTP         0.0000 
     22 N9         14.0010   32.8330   18.6490 N.pl3     1 GTP         0.0000 
     23 C8         12.9340   32.4520   17.8480 C.ar      1 GTP         0.0000 
     24 N7         13.6400   31.7980   16.8990 N.2       1 GTP         0.0000 
     25 C5         15.0290   31.8890   17.0010 C.ar      1 GTP         0.0000 
     26 C6         15.8990   31.3940   16.2380 C.ar      1 GTP         0.0000 
     27 O6         15.9820   30.6800   15.1910 O.2       1 GTP         0.0000 
     28 N1         17.2740   31.6280   16.8000 N.pl3     1 GTP         0.0000 
     29 C2         17.3040   32.2950   17.8960 C.ar      1 GTP         0.0000 
     30 N2         18.6770   32.4500   18.4750 N.pl3     1 GTP         0.0000 
     31 N3         16.3840   32.7360   18.7390 N.2       1 GTP         0.0000 
     32 C4         15.2180   32.5170   18.1350 C.ar      1 GTP         0.0000 
     33 H5'         9.7718   33.6593   21.8548 H         1 GTP         0.0000 
     34 H5''       10.4216   31.9939   21.6797 H         1 GTP         0.0000 
     35 H4'        12.2583   33.6282   22.5533 H         1 GTP         0.0000 
     36 H3'        11.3699   35.5332   21.1732 H         1 GTP         0.0000 
     37 HO3'       12.8165   35.7279   23.0299 H         1 GTP         0.0000 
     38 H2'        12.1431   35.1631   18.7630 H         1 GTP         0.0000 
     39 HO2'       13.2830   36.9601   19.1092 H         1 GTP         0.0000 
     40 H1'        14.8453   33.7628   20.3647 H         1 GTP         0.0000 
     41 H8         11.8730   32.6240   17.9510 H         1 GTP         0.0000 
     42 HN1        18.1572   31.2365   16.2739 H         1 GTP         0.0000 
     43 HN21       19.5568   32.1296   17.8977 H         1 GTP         0.0000 
     44 HN22       18.8054   32.8843   19.4775 H         1 GTP         0.0000 
@<TRIPOS>BOND
     1    1    2 2    
     2    1    3 1    
     3    1    4 1    
     4    1    5 1    
     5    5    6 1    
     6    6    7 2    
     7    6    8 1    
     8    6    9 1    
     9    9   10 1    
    10   10   11 2    
    11   10   12 1    
    12   10   13 1    
    13   13   14 1    
    14   14   15 1    
    15   14   33 1    
    16   14   34 1    
    17   15   16 1    
    18   15   17 1    
    19   15   35 1    
    20   16   21 1    
    21   17   18 1    
    22   17   19 1    
    23   17   36 1    
    24   18   37 1    
    25   19   20 1    
    26   19   21 1    
    27   19   38 1    
    28   20   39 1    
    29   21   22 1    
    30   21   40 1    
    31   22   23 ar   
    32   22   32 ar   
    33   23   24 ar   
    34   23   41 1    
    35   24   25 ar   
    36   25   26 ar   
    37   25   32 ar   
    38   26   27 2    
    39   26   28 ar   
    40   28   29 ar   
    41   28   42 1    
    42   29   30 1    
    43   29   31 ar   
    44   30   43 1    
    45   30   44 1    
    46   31   32 ar   
@<TRIPOS>SUBSTRUCTURE
     1 GTP         1 GROUP             0       ****    0 ROOT    
@<TRIPOS>MOLECULE
GTP
42   44    1
SMALL
USER_CHARGES


@<TRIPOS>ATOM
      1 PG          4.5660   31.3910   21.6350 P.3       1 GTP         0.0000 
      2 O1G         4.6130   31.9070   23.0690 O.co2     1 GTP         0.0000 
      3 O2G         3.8920   32.3190   20.6310 O.co2     1 GTP         0.0000 
      4 O3G         4.1430   30.0120   21.6130 O.co2     1 GTP         0.0000 
      5 O3B         6.1600   31.3600   21.2280 O.3       1 GTP         0.0000 
      6 PB          6.8770   31.2020   19.7450 P.3       1 GTP         0.0000 
      7 O1B         7.0790   29.7090   19.4730 O.co2     1 GTP         0.0000 
      8 O2B         6.1250   31.9700   18.7490 O.co2     1 GTP         0.0000 
      9 O3A         8.2510   31.8900   20.0030 O.3       1 GTP         0.0000 
     10 PA          8.8460   33.2610   19.4110 P.3       1 GTP         0.0000 
     11 O1A         8.8880   33.2560   17.9570 O.co2     1 GTP         0.0000 
     12 O2A         8.1050   34.3980   20.1290 O.co2     1 GTP         0.0000 
     13 O5'        10.4300   33.1530   19.9000 O.3       1 GTP         0.0000 
     14 C5'        10.5490   33.0440   21.3780 C.3       1 GTP         0.0000 
     15 C4'        12.0460   33.6180   21.4740 C.3       1 GTP         0.0000 
     16 O4'        13.0520   32.8300   20.8180 O.3       1 GTP         0.0000 
     17 C3'        12.3070   34.9690   21.0570 C.3       1 GTP         0.0000 
     18 O3'        13.1090   35.6720   21.9710 O.3       1 GTP         0.0000 
     19 C2'        12.8390   34.9710   19.5930 C.3       1 GTP         0.0000 
     20 O2'        13.6720   35.9610   19.3550 O.co2     1 GTP         0.0000 
     21 C1'        13.8460   33.6220   19.9270 C.3       1 GTP         0.0000 
     22 N9         14.0010   32.8330   18.6490 N.pl3     1 GTP         0.0000 
     23 C8         12.9340   32.4520   17.8480 C.ar      1 GTP         0.0000 
     24 N7         13.6400   31.7980   16.8990 N.2       1 GTP         0.0000 
     25 C5         15.0290   31.8890   17.0010 C.ar      1 GTP         0.0000 
     26 C6         15.8990   31.3940   16.2380 C.ar      1 GTP         0.0000 
     27 O6         15.9820   30.6800   15.1910 O.co2     1 GTP         0.0000 
     28 N1         17.2740   31.6280   16.8000 N.ar      1 GTP         0.0000 
     29 C2         17.3040   32.2950   17.8960 C.ar      1 GTP         0.0000 
     30 N2         18.6770   32.4500   18.4750 N.pl3     1 GTP         0.0000 
     31 N3         16.3840   32.7360   18.7390 N.ar      1 GTP         0.0000 
     32 C4         15.2180   32.5170   18.1350 C.ar      1 GTP         0.0000 
     33 H5'         9.7718   33.6593   21.8548 H         1 GTP         0.0000 
     34 H5''       10.4216   31.9939   21.6797 H         1 GTP         0.0000 
     35 H4'        12.2583   33.6282   22.5533 H         1 GTP         0.0000 
     36 H3'        11.3699   35.5332   21.1732 H         1 GTP         0.0000 
     37 HO3'       12.8165   35.7279   23.0299 H         1 GTP         0.0000 
     38 H2'        12.1431   35.1631   18.7630 H         1 GTP         0.0000 
     39 H1'        14.8453   33.7628   20.3647 H         1 GTP         0.0000 
     40 H8         11.8730   32.6240   17.9510 H         1 GTP         0.0000 
     41 HN21       19.5568   32.1296   17.8977 H         1 GTP         0.0000 
     42 HN22       18.8054   32.8843   19.4775 H         1 GTP         0.0000 
@<TRIPOS>BOND
     1    1    2 2    
     2    1    3 1    
     3    1    4 1    
     4    1    5 1    
     5    5    6 1    
     6    6    7 2    
     7    6    8 1    
     8    6    9 1    
     9    9   10 1    
    10   10   11 2    
    11   10   12 1    
    12   10   13 1    
    13   13   14 1    
    14   14   15 1    
    15   14   33 1    
    16   14   34 1    
    17   15   16 1    
    18   15   17 1    
    19   15   35 1    
    20   16   21 1    
    21   17   18 1    
    22   17   19 1    
    23   17   36 1    
    24   18   37 1    
    25   19   20 1    
    26   19   21 1    
    27   19   38 1    
    28   21   22 1    
    29   21   39 1    
    30   22   23 ar   
    31   22   32 ar   
    32   23   24 ar   
    33   23   40 1    
    34   24   25 ar   
    35   25   26 ar   
    36   25   32 ar   
    37   26   27 1    
    38   26   28 ar   
    39   28   29 ar   
    40   29   30 1    
    41   29   31 ar   
    42   30   41 1    
    43   30   42 1    
    44   31   32 ar   
@<TRIPOS>SUBSTRUCTURE
     1 GTP         1 GROUP             0       ****    0 ROOT    
@<TRIPOS>MOLECULE
GTP
42   44    1
SMALL
USER_CHARGES


@<TRIPOS>ATOM
      1 PG          4.5660   31.3910   21.6350 P.3       1 GTP         0.0000 
      2 O1G         4.6130   31.9070   23.0690 O.co2     1 GTP         0.0000 
      3 O2G         3.8920   32.3190   20.6310 O.co2     1 GTP         0.0000 
      4 O3G         4.1430   30.0120   21.6130 O.co2     1 GTP         0.0000 
      5 O3B         6.1600   31.3600   21.2280 O.3       1 GTP         0.0000 
      6 PB          6.8770   31.2020   19.7450 P.3       1 GTP         0.0000 
      7 O1B         7.0790   29.7090   19.4730 O.co2     1 GTP         0.0000 
      8 O2B         6.1250   31.9700   18.7490 O.co2     1 GTP         0.0000 
      9 O3A         8.2510   31.8900   20.0030 O.3       1 GTP         0.0000 
     10 PA          8.8460   33.2610   19.4110 P.3       1 GTP         0.0000 
     11 O1A         8.8880   33.2560   17.9570 O.co2     1 GTP         0.0000 
     12 O2A         8.1050   34.3980   20.1290 O.co2     1 GTP         0.0000 
     13 O5'        10.4300   33.1530   19.9000 O.3       1 GTP         0.0000 
     14 C5'        10.5490   33.0440   21.3780 C.3       1 GTP         0.0000 
     15 C4'        12.0460   33.6180   21.4740 C.3       1 GTP         0.0000 
     16 O4'        13.0520   32.8300   20.8180 O.3       1 GTP         0.0000 
     17 C3'        12.3070   34.9690   21.0570 C.3       1 GTP         0.0000 
     18 O3'        13.1090   35.6720   21.9710 O.co2     1 GTP         0.0000 
     19 C2'        12.8390   34.9710   19.5930 C.3       1 GTP         0.0000 
     20 O2'        13.6720   35.9610   19.3550 O.3       1 GTP         0.0000 
     21 C1'        13.8460   33.6220   19.9270 C.3       1 GTP         0.0000 
     22 N9         14.0010   32.8330   18.6490 N.pl3     1 GTP         0.0000 
     23 C8         12.9340   32.4520   17.8480 C.ar      1 GTP         0.0000 
     24 N7         13.6400   31.7980   16.8990 N.2       1 GTP         0.0000 
     25 C5         15.0290   31.8890   17.0010 C.ar      1 GTP         0.0000 
     26 C6         15.8990   31.3940   16.2380 C.ar      1 GTP         0.0000 
     27 O6         15.9820   30.6800   15.1910 O.co2     1 GTP         0.0000 
     28 N1         17.2740   31.6280   16.8000 N.ar      1 GTP         0.0000 
     29 C2         17.3040   32.2950   17.8960 C.ar      1 GTP         0.0000 
     30 N2         18.6770   32.4500   18.4750 N.pl3     1 GTP         0.0000 
     31 N3         16.3840   32.7360   18.7390 N.ar      1 GTP         0.0000 
     32 C4         15.2180   32.5170   18.1350 C.ar      1 GTP         0.0000 
     33 H5'         9.7718   33.6593   21.8548 H         1 GTP         0.0000 
     34 H5''       10.4216   31.9939   21.6797 H         1 GTP         0.0000 
     35 H4'        12.2583   33.6282   22.5533 H         1 GTP         0.0000 
     36 H3'        11.3699   35.5332   21.1732 H         1 GTP         0.0000 
     37 H2'        12.1431   35.1631   18.7630 H         1 GTP         0.0000 
     38 HO2'       13.2830   36.9601   19.1092 H         1 GTP         0.0000 
     39 H1'        14.8453   33.7628   20.3647 H         1 GTP         0.0000 
     40 H8         11.8730   32.6240   17.9510 H         1 GTP         0.0000 
     41 HN21       19.5568   32.1296   17.8977 H         1 GTP         0.0000 
     42 HN22       18.8054   32.8843   19.4775 H         1 GTP         0.0000 
@<TRIPOS>BOND
     1    1    2 2    
     2    1    3 1    
     3    1    4 1    
     4    1    5 1    
     5    5    6 1    
     6    6    7 2    
     7    6    8 1    
     8    6    9 1    
     9    9   10 1    
    10   10   11 2    
    11   10   12 1    
    12   10   13 1    
    13   13   14 1    
    14   14   15 1    
    15   14   33 1    
    16   14   34 1    
    17   15   16 1    
    18   15   17 1    
    19   15   35 1    
    20   16   21 1    
    21   17   18 1    
    22   17   19 1    
    23   17   36 1    
    24   19   20 1    
    25   19   21 1    
    26   19   37 1    
    27   20   38 1    
    28   21   22 1    
    29   21   39 1    
    30   22   23 ar   
    31   22   32 ar   
    32   23   24 ar   
    33   23   40 1    
    34   24   25 ar   
    35   25   26 ar   
    36   25   32 ar   
    37   26   27 1    
    38   26   28 ar   
    39   28   29 ar   
    40   29   30 1    
    41   29   31 ar   
    42   30   41 1    
    43   30   42 1    
    44   31   32 ar   
@<TRIPOS>SUBSTRUCTURE
     1 GTP         1 GROUP             0       ****    0 ROOT    
@<TRIPOS>MOLECULE
GTP
43   45    1
SMALL
USER_CHARGES


@<TRIPOS>ATOM
      1 PG          4.5660   31.3910   21.6350 P.3       1 GTP         0.0000 
      2 O1G         4.6130   31.9070   23.0690 O.co2     1 GTP         0.0000 
      3 O2G         3.8920   32.3190   20.6310 O.co2     1 GTP         0.0000 
      4 O3G         4.1430   30.0120   21.6130 O.co2     1 GTP         0.0000 
      5 O3B         6.1600   31.3600   21.2280 O.3       1 GTP         0.0000 
      6 PB          6.8770   31.2020   19.7450 P.3       1 GTP         0.0000 
      7 O1B         7.0790   29.7090   19.4730 O.co2     1 GTP         0.0000 
      8 O2B         6.1250   31.9700   18.7490 O.co2     1 GTP         0.0000 
      9 O3A         8.2510   31.8900   20.0030 O.3       1 GTP         0.0000 
     10 PA          8.8460   33.2610   19.4110 P.3       1 GTP         0.0000 
     11 O1A         8.8880   33.2560   17.9570 O.co2     1 GTP         0.0000 
     12 O2A         8.1050   34.3980   20.1290 O.co2     1 GTP         0.0000 
     13 O5'        10.4300   33.1530   19.9000 O.3       1 GTP         0.0000 
     14 C5'        10.5490   33.0440   21.3780 C.3       1 GTP         0.0000 
     15 C4'        12.0460   33.6180   21.4740 C.3       1 GTP         0.0000 
     16 O4'        13.0520   32.8300   20.8180 O.3       1 GTP         0.0000 
     17 C3'        12.3070   34.9690   21.0570 C.3       1 GTP         0.0000 
     18 O3'        13.1090   35.6720   21.9710 O.3       1 GTP         0.0000 
     19 C2'        12.8390   34.9710   19.5930 C.3       1 GTP         0.0000 
     20 O2'        13.6720   35.9610   19.3550 O.co2     1 GTP         0.0000 
     21 C1'        13.8460   33.6220   19.9270 C.3       1 GTP         0.0000 
     22 N9         14.0010   32.8330   18.6490 N.pl3     1 GTP         0.0000 
     23 C8         12.9340   32.4520   17.8480 C.ar      1 GTP         0.0000 
     24 N7         13.6400   31.7980   16.8990 N.2       1 GTP         0.0000 
     25 C5         15.0290   31.8890   17.0010 C.ar      1 GTP         0.0000 
     26 C6         15.8990   31.3940   16.2380 C.ar      1 GTP         0.0000 
     27 O6         15.9820   30.6800   15.1910 O.2       1 GTP         0.0000 
     28 N1         17.2740   31.6280   16.8000 N.pl3     1 GTP         0.0000 
     29 C2         17.3040   32.2950   17.8960 C.ar      1 GTP         0.0000 
     30 N2         18.6770   32.4500   18.4750 N.pl3     1 GTP         0.0000 
     31 N3         16.3840   32.7360   18.7390 N.2       1 GTP         0.0000 
     32 C4         15.2180   32.5170   18.1350 C.ar      1 GTP         0.0000 
     33 H5'         9.7718   33.6593   21.8548 H         1 GTP         0.0000 
     34 H5''       10.4216   31.9939   21.6797 H         1 GTP         0.0000 
     35 H4'        12.2583   33.6282   22.5533 H         1 GTP         0.0000 
     36 H3'        11.3699   35.5332   21.1732 H         1 GTP         0.0000 
     37 HO3'       12.8165   35.7279   23.0299 H         1 GTP         0.0000 
     38 H2'        12.1431   35.1631   18.7630 H         1 GTP         0.0000 
     39 H1'        14.8453   33.7628   20.3647 H         1 GTP         0.0000 
     40 H8         11.8730   32.6240   17.9510 H         1 GTP         0.0000 
     41 HN1        18.1572   31.2365   16.2739 H         1 GTP         0.0000 
     42 HN21       19.5568   32.1296   17.8977 H         1 GTP         0.0000 
     43 HN22       18.8054   32.8843   19.4775 H         1 GTP         0.0000 
@<TRIPOS>BOND
     1    1    2 2    
     2    1    3 1    
     3    1    4 1    
     4    1    5 1    
     5    5    6 1    
     6    6    7 2    
     7    6    8 1    
     8    6    9 1    
     9    9   10 1    
    10   10   11 2    
    11   10   12 1    
    12   10   13 1    
    13   13   14 1    
    14   14   15 1    
    15   14   33 1    
    16   14   34 1    
    17   15   16 1    
    18   15   17 1    
    19   15   35 1    
    20   16   21 1    
    21   17   18 1    
    22   17   19 1    
    23   17   36 1    
    24   18   37 1    
    25   19   20 1    
    26   19   21 1    
    27   19   38 1    
    28   21   22 1    
    29   21   39 1    
    30   22   23 ar   
    31   22   32 ar   
    32   23   24 ar   
    33   23   40 1    
    34   24   25 ar   
    35   25   26 ar   
    36   25   32 ar   
    37   26   27 2    
    38   26   28 ar   
    39   28   29 ar   
    40   28   41 1    
    41   29   30 1    
    42   29   31 ar   
    43   30   42 1    
    44   30   43 1    
    45   31   32 ar   
@<TRIPOS>SUBSTRUCTURE
     1 GTP         1 GROUP             0       ****    0 ROOT    
