PO4
                    3D
 Structure written by MMmdl.
  5  4  0  0  1  0            999 V2000
   29.9950   23.5160   13.2490 P   0  0  0  0  0  0
   31.0920   22.9880   14.1640 O   0  0  0  0  0  0
   30.4040   24.8960   12.6470 O   0  0  0  0  0  0
   29.6460   22.5180   12.1260 O   0  0  0  0  0  0
   28.7270   23.7440   14.1610 O   0  0  0  0  0  0
  1  2  2  0  0  0
  1  3  1  0  0  0
  1  4  1  0  0  0
  1  5  1  0  0  0
M  END
> <s_m_source_file>
/cbio/jclab/home/rustenburg/PFK/Epik-Ligands/Results/InProgress/PHOSPHATE ION/pH_4.0/PHOSPHATE ION_pH_4.0-before_epik.mol2

> <i_m_source_file_index>
1

> <r_lp_tautomer_probability>
1

> <r_epik_Ionization_Penalty>
  0.0000

> <r_epik_Ionization_Penalty_Charging>
  0.0000

> <r_epik_Ionization_Penalty_Neutral>
  0.0000

> <r_epik_State_Penalty>
 -0.0000

> <r_epik_Charging_Adjusted_Penalty>
0

> <i_epik_Tot_Q>
0

> <i_epik_Tot_abs_Q>
0

$$$$
