@<TRIPOS>MOLECULE
ACY
    8     7     1     0     0
SMALL
NO_CHARGES

@<TRIPOS>ATOM
      1  C         -8.6820    8.1700    3.8030 C.2       1 ACY         0.0000
      2  O         -9.4670    8.5240    4.7830 O.2       1 ACY         0.0000
      3  OXT       -8.1920    7.0090    3.5800 O.3       1 ACY         0.0000
      4  CH3       -8.4020    9.2940    2.8210 C.3       1 ACY         0.0000
      5  HXT       -8.4870    6.4060    4.2520 H         1 ACY         0.0000
      6  H1        -8.9310   10.2030    3.1430 H         1 ACY         0.0000
      7  H2        -7.3200    9.4920    2.7890 H         1 ACY         0.0000
      8  H3        -8.7510    9.0010    1.8200 H         1 ACY         0.0000
@<TRIPOS>BOND
     1    1    2 2
     2    1    3 1
     3    1    4 1
     4    3    5 1
     5    4    6 1
     6    4    7 1
     7    4    8 1
@<TRIPOS>SUBSTRUCTURE
     1 ACY         1 GROUP 0 A     ****
