@<TRIPOS>MOLECULE
ACP
   49    51     1     0     0
SMALL
NO_CHARGES

@<TRIPOS>ATOM
      1  PG         0.8550   23.2630   12.2680 P.3       1 ACP         0.0000
      2  O1G        0.2610   24.0670   11.1550 O.2       1 ACP         0.0000
      3  O2G        1.5460   24.2690   13.3220 O.3       1 ACP         0.0000
      4  O3G       -0.1310   22.3590   12.9100 O.3       1 ACP         0.0000
      5  PB         3.9600   22.9890   11.4430 P.3       1 ACP         0.0000
      6  O1B        4.3120   23.6160   12.7350 O.2       1 ACP         0.0000
      7  O2B        3.9240   23.9590   10.3010 O.3       1 ACP         0.0000
      8  C3B        2.2840   22.2700   11.6710 C.3       1 ACP         0.0000
      9  PA         5.7430   20.7430   12.1060 P.3       1 ACP         0.0000
     10  O1A        4.8310   20.2740   13.1830 O.2       1 ACP         0.0000
     11  O2A        7.0060   21.2900   12.6600 O.3       1 ACP         0.0000
     12  O3A        5.0120   21.8360   11.1810 O.3       1 ACP         0.0000
     13  O5'        6.0310   19.5600   11.0600 O.3       1 ACP         0.0000
     14  C5'        4.9790   19.0950   10.1930 C.3       1 ACP         0.0000
     15  C4'        5.2560   17.6540    9.8080 C.3       1 ACP         0.0000
     16  O4'        6.3740   17.6320    8.8930 O.3       1 ACP         0.0000
     17  C3'        5.6520   16.8010   11.0140 C.3       1 ACP         0.0000
     18  O3'        5.2040   15.4480   10.8610 O.3       1 ACP         0.0000
     19  C2'        7.1700   16.9250   11.0340 C.3       1 ACP         0.0000
     20  O2'        7.8570   15.9360   11.8240 O.3       1 ACP         0.0000
     21  C1'        7.4740   16.9460    9.5320 C.3       1 ACP         0.0000
     22  N9         8.7090   17.7200    9.2130 N.pl3     1 ACP         0.0000
     23  C8         8.8950   19.0190    9.4210 C.ar      1 ACP         0.0000
     24  N7        10.1830   19.2940    9.1830 N.ar      1 ACP         0.0000
     25  C5        10.7990   18.1770    8.8190 C.ar      1 ACP         0.0000
     26  C6        12.1150   17.8560    8.4630 C.ar      1 ACP         0.0000
     27  N6        13.1040   18.7320    8.5870 N.pl3     1 ACP         0.0000
     28  N1        12.3770   16.5790    8.1080 N.ar      1 ACP         0.0000
     29  C2        11.4290   15.6450    8.1140 C.ar      1 ACP         0.0000
     30  N3        10.2040   15.9280    8.4830 N.ar      1 ACP         0.0000
     31  C4         9.8490   17.1740    8.8270 C.ar      1 ACP         0.0000
     32 HOG2        1.9230   23.7580   14.0280 H         1 ACP         0.0000
     33 HOG3        0.2460   21.8480   13.6160 H         1 ACP         0.0000
     34 HOB2        3.6970   23.5560    9.4700 H         1 ACP         0.0000
     35 H3B1        2.3850   21.3870   12.3440 H         1 ACP         0.0000
     36 H3B2        1.9860   21.7970   10.7050 H         1 ACP         0.0000
     37 HOA2        7.5880   21.5890   11.9720 H         1 ACP         0.0000
     38 H5'1        3.9670   19.2260   10.6440 H         1 ACP         0.0000
     39 H5'2        4.8400   19.7520    9.3030 H         1 ACP         0.0000
     40  H4'        4.3230   17.2400    9.3590 H         1 ACP         0.0000
     41  H3'        5.1890   17.1320   11.9730 H         1 ACP         0.0000
     42 HO3'        5.4500   14.9180   11.6100 H         1 ACP         0.0000
     43  H2'        7.5540   17.8260   11.5650 H         1 ACP         0.0000
     44 HO2'        8.8030   16.0130   11.8360 H         1 ACP         0.0000
     45  H1'        7.6150   15.8950    9.1840 H         1 ACP         0.0000
     46  H8         8.1200   19.7380    9.7340 H         1 ACP         0.0000
     47 HN61       14.0620   18.4980    8.3270 H         1 ACP         0.0000
     48 HN62       13.1120   19.0590    9.5520 H         1 ACP         0.0000
     49  H2        11.6640   14.6120    7.8060 H         1 ACP         0.0000
@<TRIPOS>BOND
     1    1    2 2
     2    1    3 1
     3    1    4 1
     4    1    8 1
     5    3   32 1
     6    4   33 1
     7    5    6 2
     8    5    7 1
     9    5    8 1
    10    5   12 1
    11    7   34 1
    12    8   35 1
    13    8   36 1
    14    9   10 2
    15    9   11 1
    16    9   12 1
    17    9   13 1
    18   11   37 1
    19   13   14 1
    20   14   15 1
    21   14   38 1
    22   14   39 1
    23   15   16 1
    24   15   17 1
    25   15   40 1
    26   16   21 1
    27   17   18 1
    28   17   19 1
    29   17   41 1
    30   18   42 1
    31   19   20 1
    32   19   21 1
    33   19   43 1
    34   20   44 1
    35   21   22 1
    36   21   45 1
    37   22   23 ar
    38   22   31 ar
    39   23   24 ar
    40   23   46 1
    41   24   25 ar
    42   25   26 ar
    43   25   31 ar
    44   26   27 1
    45   26   28 ar
    46   27   47 1
    47   27   48 1
    48   28   29 ar
    49   29   30 ar
    50   29   49 1
    51   30   31 ar
@<TRIPOS>SUBSTRUCTURE
     1 ACP         1 GROUP 0 A     ****
