@<TRIPOS>MOLECULE
CIT
   21    20     1     0     0
SMALL
NO_CHARGES

@<TRIPOS>ATOM
      1  C1        68.4180   48.3850   33.0230 C.2       1 CIT         0.0000
      2  O1        68.8200   47.5710   32.3980 O.2       1 CIT         0.0000
      3  O2        68.6370   49.5560   32.9780 O.3       1 CIT         0.0000
      4  C2        67.4830   48.0690   34.2230 C.3       1 CIT         0.0000
      5  C3        65.9350   48.1150   34.0490 C.3       1 CIT         0.0000
      6  O7        65.4890   49.4220   33.5830 O.3       1 CIT         0.0000
      7  C4        65.5390   47.1450   32.9120 C.3       1 CIT         0.0000
      8  C5        64.0420   46.9920   32.7920 C.2       1 CIT         0.0000
      9  O3        63.6500   46.2810   31.7410 O.2       1 CIT         0.0000
     10  O4        63.2220   47.3690   33.5850 O.3       1 CIT         0.0000
     11  C6        65.2600   47.7760   35.3540 C.2       1 CIT         0.0000
     12  O5        65.3250   46.5580   35.7260 O.2       1 CIT         0.0000
     13  O6        64.7220   48.7180   36.0170 O.3       1 CIT         0.0000
     14  HO2       68.2900   50.2570   33.5160 H         1 CIT         0.0000
     15  H21       67.7600   47.0680   34.6290 H         1 CIT         0.0000
     16  H22       67.7600   48.7390   35.0690 H         1 CIT         0.0000
     17  HO7       64.5450   49.4500   33.4760 H         1 CIT         0.0000
     18  H41       65.9920   47.4530   31.9410 H         1 CIT         0.0000
     19  H42       66.0370   46.1550   33.0330 H         1 CIT         0.0000
     20  HO4       62.2790   47.2720   33.5090 H         1 CIT         0.0000
     21  HO6       64.2960   48.5040   36.8390 H         1 CIT         0.0000
@<TRIPOS>BOND
     1    1    2 2
     2    1    3 1
     3    1    4 1
     4    3   14 1
     5    4    5 1
     6    4   15 1
     7    4   16 1
     8    5    6 1
     9    5    7 1
    10    5   11 1
    11    6   17 1
    12    7    8 1
    13    7   18 1
    14    7   19 1
    15    8    9 2
    16    8   10 1
    17   10   20 1
    18   11   12 2
    19   11   13 1
    20   13   21 1
@<TRIPOS>SUBSTRUCTURE
     1 CIT         1 GROUP 0 A     ****
