CIT
                    3D
 Structure written by MMmdl.
 18 17  0  0  1  0            999 V2000
   68.4180   48.3850   33.0230 C   0  0  0  0  0  0
   68.8200   47.5710   32.3980 O   0  0  0  0  0  0
   68.6370   49.5560   32.9780 O   0  5  0  0  0  0
   67.4830   48.0690   34.2230 C   0  0  0  0  0  0
   65.9350   48.1150   34.0490 C   0  0  0  0  0  0
   65.4890   49.4220   33.5830 O   0  0  0  0  0  0
   65.5390   47.1450   32.9120 C   0  0  0  0  0  0
   64.0420   46.9920   32.7920 C   0  0  0  0  0  0
   63.6500   46.2810   31.7410 O   0  0  0  0  0  0
   63.2220   47.3690   33.5850 O   0  5  0  0  0  0
   65.2600   47.7760   35.3540 C   0  0  0  0  0  0
   65.3250   46.5580   35.7260 O   0  0  0  0  0  0
   64.7220   48.7180   36.0170 O   0  5  0  0  0  0
   67.6764   47.0464   34.5791 H   0  0  0  0  0  0
   67.6766   48.7834   35.0367 H   0  0  0  0  0  0
   65.8803   49.8328   32.6406 H   0  0  0  0  0  0
   65.9223   47.5268   31.9542 H   0  0  0  0  0  0
   65.9701   46.1525   33.1099 H   0  0  0  0  0  0
  1  2  2  0  0  0
  1  3  1  0  0  0
  1  4  1  0  0  0
  4  5  1  0  0  0
  4 14  1  0  0  0
  4 15  1  0  0  0
  5  6  1  0  0  0
  5  7  1  0  0  0
  5 11  1  0  0  0
  6 16  1  0  0  0
  7  8  1  0  0  0
  7 17  1  0  0  0
  7 18  1  0  0  0
  8  9  2  0  0  0
  8 10  1  0  0  0
 11 12  2  0  0  0
 11 13  1  0  0  0
M  CHG  3   3  -1  10  -1  13  -1
M  END
> <s_m_source_file>
/cbio/jclab/home/rustenburg/PFK/Epik-Ligands/Results/InProgress/CITRIC ACID/pH_10.0/CITRIC ACID_pH_10.0-before_epik.mol2

> <i_m_source_file_index>
1

> <r_epik_Ionization_Penalty>
  0.0000

> <r_epik_Ionization_Penalty_Charging>
  0.0000

> <r_epik_Ionization_Penalty_Neutral>
  0.0000

> <r_epik_State_Penalty>
  0.0000

> <r_epik_Charging_Adjusted_Penalty>
6.36100623394618e-06

> <i_epik_Tot_Q>
-3

> <i_epik_Tot_abs_Q>
3

$$$$
