@<TRIPOS>MOLECULE
EPE
   33    33     1     0     0
SMALL
NO_CHARGES

@<TRIPOS>ATOM
      1  N1        61.6520   47.3370   51.6160 N.3       1 EPE         0.0000
      2  C2        63.0510   46.9050   51.9670 C.3       1 EPE         0.0000
      3  C3        63.9620   47.2570   50.7960 C.3       1 EPE         0.0000
      4  N4        63.5510   46.5440   49.5780 N.3       1 EPE         0.0000
      5  C5        62.1510   46.9100   49.2480 C.3       1 EPE         0.0000
      6  C6        61.2180   46.5540   50.4020 C.3       1 EPE         0.0000
      7  C7        64.3680   46.8930   48.3850 C.3       1 EPE         0.0000
      8  C8        65.8540   46.7210   48.6130 C.3       1 EPE         0.0000
      9  O8        66.2400   45.4000   48.9790 O.3       1 EPE         0.0000
     10  C9        60.6850   46.9920   52.7090 C.3       1 EPE         0.0000
     11  C10       60.8700   47.9740   53.8930 C.3       1 EPE         0.0000
     12  S         59.5590   47.6920   55.0900 S.o2      1 EPE         0.0000
     13  O1S       59.7320   48.6940   56.1150 O.2       1 EPE         0.0000
     14  O2S       59.7370   46.3270   55.5960 O.2       1 EPE         0.0000
     15  O3S       58.3310   47.8630   54.3580 O.3       1 EPE         0.0000
     16  H21       63.4050   47.3340   52.9320 H         1 EPE         0.0000
     17  H22       63.1110   45.8280   52.2510 H         1 EPE         0.0000
     18  H31       64.0130   48.3580   50.6300 H         1 EPE         0.0000
     19  H32       65.0340   47.0720   51.0380 H         1 EPE         0.0000
     20  H51       62.0600   47.9820   48.9580 H         1 EPE         0.0000
     21  H52       61.8170   46.4490   48.2880 H         1 EPE         0.0000
     22  H61       61.1690   45.4560   50.5920 H         1 EPE         0.0000
     23  H62       60.1430   46.7110   50.1500 H         1 EPE         0.0000
     24  H71       64.0330   46.3160   47.4910 H         1 EPE         0.0000
     25  H72       64.1360   47.9250   48.0320 H         1 EPE         0.0000
     26  H81       66.4270   47.0610   47.7190 H         1 EPE         0.0000
     27  H82       66.2200   47.4570   49.3650 H         1 EPE         0.0000
     28  HO8       67.1720   45.2920   49.1220 H         1 EPE         0.0000
     29  H91       59.6310   46.9640   52.3450 H         1 EPE         0.0000
     30  H92       60.7720   45.9270   53.0270 H         1 EPE         0.0000
     31 H101       61.8850   47.9040   54.3490 H         1 EPE         0.0000
     32 H102       60.9210   49.0370   53.5600 H         1 EPE         0.0000
     33 HOS3       57.6380   47.7140   54.9900 H         1 EPE         0.0000
@<TRIPOS>BOND
     1    1    2 1
     2    1    6 1
     3    1   10 1
     4    2    3 1
     5    2   16 1
     6    2   17 1
     7    3    4 1
     8    3   18 1
     9    3   19 1
    10    4    5 1
    11    4    7 1
    12    5    6 1
    13    5   20 1
    14    5   21 1
    15    6   22 1
    16    6   23 1
    17    7    8 1
    18    7   24 1
    19    7   25 1
    20    8    9 1
    21    8   26 1
    22    8   27 1
    23    9   28 1
    24   10   11 1
    25   10   29 1
    26   10   30 1
    27   11   12 1
    28   11   31 1
    29   11   32 1
    30   12   13 2
    31   12   14 2
    32   12   15 1
    33   15   33 1
@<TRIPOS>SUBSTRUCTURE
     1 EPE         1 GROUP 0 A     ****
