@<TRIPOS>MOLECULE
GSH
   37    36     1     0     0
SMALL
NO_CHARGES

@<TRIPOS>ATOM
      1  N1        29.4280   55.6180   21.0350 N.3       1 GSH         0.0000
      2  CA1       30.8570   55.3600   20.8190 C.3       1 GSH         0.0000
      3  C1        31.1720   53.8470   20.7060 C.2       1 GSH         0.0000
      4  O11       32.1690   53.4940   20.0680 O.2       1 GSH         0.0000
      5  O12       30.3380   53.0180   21.3090 O.3       1 GSH         0.0000
      6  CB1       31.6820   56.0170   21.9480 C.3       1 GSH         0.0000
      7  CG1       33.1680   56.2360   21.5350 C.3       1 GSH         0.0000
      8  CD1       33.9430   56.7830   22.7670 C.2       1 GSH         0.0000
      9  OE1       33.3750   57.4490   23.6470 O.2       1 GSH         0.0000
     10  N2        35.2490   56.4840   22.7930 N.am      1 GSH         0.0000
     11  CA2       36.1160   57.1670   23.7590 C.3       1 GSH         0.0000
     12  C2        37.3460   57.7140   23.0170 C.2       1 GSH         0.0000
     13  O2        38.4710   57.7550   23.5310 O.2       1 GSH         0.0000
     14  CB2       36.6120   56.1590   24.8260 C.3       1 GSH         0.0000
     15  SG2       35.2670   55.4640   25.8370 S.3       1 GSH         0.0000
     16  N3        37.1200   58.1640   21.7610 N.am      1 GSH         0.0000
     17  CA3       38.1830   58.6980   20.8980 C.3       1 GSH         0.0000
     18  C3        37.9070   60.1660   20.6210 C.2       1 GSH         0.0000
     19  O31       38.5800   60.6930   19.7190 O.2       1 GSH         0.0000
     20  O32       37.0370   60.7560   21.3120 O.3       1 GSH         0.0000
     21 HN11       29.2730   56.6040   21.1010 H         1 GSH         0.0000
     22 HN12       28.9030   55.2490   20.2680 H         1 GSH         0.0000
     23  HA1       31.1570   55.8320   19.8720 H         1 GSH         0.0000
     24  H12       30.6270   52.1230   21.1730 H         1 GSH         0.0000
     25 HB12       31.2350   56.9910   22.1940 H         1 GSH         0.0000
     26 HB13       31.6520   55.3660   22.8340 H         1 GSH         0.0000
     27 HG12       33.6090   55.2810   21.2130 H         1 GSH         0.0000
     28 HG13       33.2210   56.9620   20.7100 H         1 GSH         0.0000
     29  HN2       35.6270   55.8050   22.1630 H         1 GSH         0.0000
     30  HA2       35.5800   57.9920   24.2510 H         1 GSH         0.0000
     31 HB22       37.1270   55.3330   24.3140 H         1 GSH         0.0000
     32 HB23       37.3190   56.6750   25.4920 H         1 GSH         0.0000
     33  HSG       35.9130   54.6690   26.6370 H         1 GSH         0.0000
     34  HN3       36.1870   58.1320   21.4040 H         1 GSH         0.0000
     35 HA31       39.1550   58.5950   21.4030 H         1 GSH         0.0000
     36 HA32       38.2020   58.1410   19.9490 H         1 GSH         0.0000
     37  H32       36.9760   61.6630   21.0370 H         1 GSH         0.0000
@<TRIPOS>BOND
     1    1    2 1
     2    1   21 1
     3    1   22 1
     4    2    3 1
     5    2    6 1
     6    2   23 1
     7    3    4 2
     8    3    5 1
     9    5   24 1
    10    6    7 1
    11    6   25 1
    12    6   26 1
    13    7    8 1
    14    7   27 1
    15    7   28 1
    16    8    9 2
    17    8   10 am
    18   10   11 1
    19   10   29 1
    20   11   12 1
    21   11   14 1
    22   11   30 1
    23   12   13 2
    24   12   16 am
    25   14   15 1
    26   14   31 1
    27   14   32 1
    28   15   33 1
    29   16   17 1
    30   16   34 1
    31   17   18 1
    32   17   35 1
    33   17   36 1
    34   18   19 2
    35   18   20 1
    36   20   37 1
@<TRIPOS>SUBSTRUCTURE
     1 GSH         1 GROUP 0 A     ****
