GSH
                    3D
 Structure written by MMmdl.
 36 35  0  0  1  0            999 V2000
   29.4280   55.6180   21.0350 N   0  3  0  0  0  0
   30.8570   55.3600   20.8190 C   0  0  2  0  0  0
   31.1720   53.8470   20.7060 C   0  0  0  0  0  0
   32.1690   53.4940   20.0680 O   0  0  0  0  0  0
   30.3380   53.0180   21.3090 O   0  5  0  0  0  0
   31.6820   56.0170   21.9480 C   0  0  0  0  0  0
   33.1680   56.2360   21.5350 C   0  0  0  0  0  0
   33.9430   56.7830   22.7670 C   0  0  0  0  0  0
   33.3750   57.4490   23.6470 O   0  0  0  0  0  0
   35.2490   56.4840   22.7930 N   0  0  0  0  0  0
   36.1160   57.1670   23.7590 C   0  0  2  0  0  0
   37.3460   57.7140   23.0170 C   0  0  0  0  0  0
   38.4710   57.7550   23.5310 O   0  0  0  0  0  0
   36.6120   56.1590   24.8260 C   0  0  0  0  0  0
   35.2670   55.4640   25.8370 S   0  0  0  0  0  0
   37.1200   58.1640   21.7610 N   0  0  0  0  0  0
   38.1830   58.6980   20.8980 C   0  0  0  0  0  0
   37.9070   60.1660   20.6210 C   0  0  0  0  0  0
   38.5800   60.6930   19.7190 O   0  0  0  0  0  0
   37.0370   60.7560   21.3120 O   0  5  0  0  0  0
   28.8448   55.1486   20.2291 H   0  0  0  0  0  0
   29.2471   56.7030   21.0344 H   0  0  0  0  0  0
   31.0841   55.8300   19.8507 H   0  0  0  0  0  0
   31.2475   56.9963   22.1974 H   0  0  0  0  0  0
   31.6651   55.3709   22.8381 H   0  0  0  0  0  0
   33.6032   55.2793   21.2106 H   0  0  0  0  0  0
   33.2159   56.9598   20.7080 H   0  0  0  0  0  0
   35.6733   55.7388   22.1040 H   0  0  0  0  0  0
   35.5132   57.9697   24.2088 H   0  0  0  0  0  0
   37.1213   55.3201   24.3291 H   0  0  0  0  0  0
   37.3137   56.6621   25.5076 H   0  0  0  0  0  0
   35.4945   54.7357   26.6293 H   0  0  0  0  0  0
   36.0844   58.1170   21.3930 H   0  0  0  0  0  0
   39.1538   58.5929   21.4044 H   0  0  0  0  0  0
   38.2013   58.1395   19.9505 H   0  0  0  0  0  0
   29.1215   55.1957   22.0034 H   0  0  0  0  0  0
  1  2  1  0  0  0
  1 21  1  0  0  0
  1 22  1  0  0  0
  1 36  1  0  0  0
  2  3  1  0  0  0
  2  6  1  0  0  0
  2 23  1  0  0  0
  3  4  2  0  0  0
  3  5  1  0  0  0
  6  7  1  0  0  0
  6 24  1  0  0  0
  6 25  1  0  0  0
  7  8  1  0  0  0
  7 26  1  0  0  0
  7 27  1  0  0  0
  8  9  2  0  0  0
  8 10  1  0  0  0
 10 11  1  0  0  0
 10 28  1  0  0  0
 11 12  1  0  0  0
 11 14  1  0  0  0
 11 29  1  0  0  0
 12 13  2  0  0  0
 12 16  1  0  0  0
 14 15  1  0  0  0
 14 30  1  0  0  0
 14 31  1  0  0  0
 15 32  1  0  0  0
 16 17  1  0  0  0
 16 33  1  0  0  0
 17 18  1  0  0  0
 17 34  1  0  0  0
 17 35  1  0  0  0
 18 19  2  0  0  0
 18 20  1  0  0  0
M  CHG  3   1   1   5  -1  20  -1
M  END
> <s_m_source_file>
/cbio/jclab/home/rustenburg/PFK/Epik-Ligands/Results/InProgress/GLUTATHIONE/pH_7.4/GLUTATHIONE_pH_7.4-before_epik.mol2

> <i_m_source_file_index>
1

> <r_epik_Ionization_Penalty>
  0.0265

> <r_epik_Ionization_Penalty_Charging>
  0.0060

> <r_epik_Ionization_Penalty_Neutral>
  0.0205

> <r_epik_State_Penalty>
  0.0208

> <r_epik_Charging_Adjusted_Penalty>
0.0268005951642888

> <i_epik_Tot_Q>
-1

> <i_epik_Tot_abs_Q>
3

$$$$
GSH
                    3D
 Structure written by MMmdl.
 35 34  0  0  1  0            999 V2000
   29.4280   55.6180   21.0350 N   0  3  0  0  0  0
   30.8570   55.3600   20.8190 C   0  0  2  0  0  0
   31.1720   53.8470   20.7060 C   0  0  0  0  0  0
   32.1690   53.4940   20.0680 O   0  0  0  0  0  0
   30.3380   53.0180   21.3090 O   0  5  0  0  0  0
   31.6820   56.0170   21.9480 C   0  0  0  0  0  0
   33.1680   56.2360   21.5350 C   0  0  0  0  0  0
   33.9430   56.7830   22.7670 C   0  0  0  0  0  0
   33.3750   57.4490   23.6470 O   0  0  0  0  0  0
   35.2490   56.4840   22.7930 N   0  0  0  0  0  0
   36.1160   57.1670   23.7590 C   0  0  2  0  0  0
   37.3460   57.7140   23.0170 C   0  0  0  0  0  0
   38.4710   57.7550   23.5310 O   0  0  0  0  0  0
   36.6120   56.1590   24.8260 C   0  0  0  0  0  0
   35.2670   55.4640   25.8370 S   0  5  0  0  0  0
   37.1200   58.1640   21.7610 N   0  0  0  0  0  0
   38.1830   58.6980   20.8980 C   0  0  0  0  0  0
   37.9070   60.1660   20.6210 C   0  0  0  0  0  0
   38.5800   60.6930   19.7190 O   0  0  0  0  0  0
   37.0370   60.7560   21.3120 O   0  5  0  0  0  0
   28.8448   55.1486   20.2291 H   0  0  0  0  0  0
   29.2471   56.7030   21.0344 H   0  0  0  0  0  0
   31.0841   55.8300   19.8507 H   0  0  0  0  0  0
   31.2475   56.9963   22.1974 H   0  0  0  0  0  0
   31.6651   55.3709   22.8381 H   0  0  0  0  0  0
   33.6032   55.2793   21.2106 H   0  0  0  0  0  0
   33.2159   56.9598   20.7080 H   0  0  0  0  0  0
   35.6733   55.7388   22.1040 H   0  0  0  0  0  0
   35.5132   57.9697   24.2088 H   0  0  0  0  0  0
   37.1213   55.3201   24.3291 H   0  0  0  0  0  0
   37.3137   56.6621   25.5076 H   0  0  0  0  0  0
   36.0844   58.1170   21.3930 H   0  0  0  0  0  0
   39.1538   58.5929   21.4044 H   0  0  0  0  0  0
   38.2013   58.1395   19.9505 H   0  0  0  0  0  0
   29.1215   55.1957   22.0034 H   0  0  0  0  0  0
  1  2  1  0  0  0
  1 21  1  0  0  0
  1 22  1  0  0  0
  1 35  1  0  0  0
  2  3  1  0  0  0
  2  6  1  0  0  0
  2 23  1  0  0  0
  3  4  2  0  0  0
  3  5  1  0  0  0
  6  7  1  0  0  0
  6 24  1  0  0  0
  6 25  1  0  0  0
  7  8  1  0  0  0
  7 26  1  0  0  0
  7 27  1  0  0  0
  8  9  2  0  0  0
  8 10  1  0  0  0
 10 11  1  0  0  0
 10 28  1  0  0  0
 11 12  1  0  0  0
 11 14  1  0  0  0
 11 29  1  0  0  0
 12 13  2  0  0  0
 12 16  1  0  0  0
 14 15  1  0  0  0
 14 30  1  0  0  0
 14 31  1  0  0  0
 16 17  1  0  0  0
 16 32  1  0  0  0
 17 18  1  0  0  0
 17 33  1  0  0  0
 17 34  1  0  0  0
 18 19  2  0  0  0
 18 20  1  0  0  0
M  CHG  4   1   1   5  -1  15  -1  20  -1
M  END
> <s_m_source_file>
/cbio/jclab/home/rustenburg/PFK/Epik-Ligands/Results/InProgress/GLUTATHIONE/pH_7.4/GLUTATHIONE_pH_7.4-before_epik.mol2

> <i_m_source_file_index>
1

> <r_epik_Ionization_Penalty>
  2.0079

> <r_epik_Ionization_Penalty_Charging>
  2.0079

> <r_epik_Ionization_Penalty_Neutral>
  0.0000

> <r_epik_State_Penalty>
  2.1374

> <r_epik_Charging_Adjusted_Penalty>
4.14532765659361

> <i_epik_Tot_Q>
-2

> <i_epik_Tot_abs_Q>
4

$$$$
GSH
                    3D
 Structure written by MMmdl.
 35 34  0  0  1  0            999 V2000
   29.4280   55.6180   21.0350 N   0  0  0  0  0  0
   30.8570   55.3600   20.8190 C   0  0  2  0  0  0
   31.1720   53.8470   20.7060 C   0  0  0  0  0  0
   32.1690   53.4940   20.0680 O   0  0  0  0  0  0
   30.3380   53.0180   21.3090 O   0  5  0  0  0  0
   31.6820   56.0170   21.9480 C   0  0  0  0  0  0
   33.1680   56.2360   21.5350 C   0  0  0  0  0  0
   33.9430   56.7830   22.7670 C   0  0  0  0  0  0
   33.3750   57.4490   23.6470 O   0  0  0  0  0  0
   35.2490   56.4840   22.7930 N   0  0  0  0  0  0
   36.1160   57.1670   23.7590 C   0  0  2  0  0  0
   37.3460   57.7140   23.0170 C   0  0  0  0  0  0
   38.4710   57.7550   23.5310 O   0  0  0  0  0  0
   36.6120   56.1590   24.8260 C   0  0  0  0  0  0
   35.2670   55.4640   25.8370 S   0  0  0  0  0  0
   37.1200   58.1640   21.7610 N   0  0  0  0  0  0
   38.1830   58.6980   20.8980 C   0  0  0  0  0  0
   37.9070   60.1660   20.6210 C   0  0  0  0  0  0
   38.5800   60.6930   19.7190 O   0  0  0  0  0  0
   37.0370   60.7560   21.3120 O   0  5  0  0  0  0
   29.1163   55.1760   21.9928 H   0  0  0  0  0  0
   29.2506   56.7034   21.0570 H   0  0  0  0  0  0
   31.0841   55.8300   19.8507 H   0  0  0  0  0  0
   31.2475   56.9963   22.1974 H   0  0  0  0  0  0
   31.6651   55.3709   22.8381 H   0  0  0  0  0  0
   33.6032   55.2793   21.2106 H   0  0  0  0  0  0
   33.2159   56.9598   20.7080 H   0  0  0  0  0  0
   35.6733   55.7388   22.1040 H   0  0  0  0  0  0
   35.5132   57.9697   24.2088 H   0  0  0  0  0  0
   37.1213   55.3201   24.3291 H   0  0  0  0  0  0
   37.3137   56.6621   25.5076 H   0  0  0  0  0  0
   35.4945   54.7357   26.6293 H   0  0  0  0  0  0
   36.0844   58.1170   21.3930 H   0  0  0  0  0  0
   39.1538   58.5929   21.4044 H   0  0  0  0  0  0
   38.2013   58.1395   19.9505 H   0  0  0  0  0  0
  1  2  1  0  0  0
  1 21  1  0  0  0
  1 22  1  0  0  0
  2  3  1  0  0  0
  2  6  1  0  0  0
  2 23  1  0  0  0
  3  4  2  0  0  0
  3  5  1  0  0  0
  6  7  1  0  0  0
  6 24  1  0  0  0
  6 25  1  0  0  0
  7  8  1  0  0  0
  7 26  1  0  0  0
  7 27  1  0  0  0
  8  9  2  0  0  0
  8 10  1  0  0  0
 10 11  1  0  0  0
 10 28  1  0  0  0
 11 12  1  0  0  0
 11 14  1  0  0  0
 11 29  1  0  0  0
 12 13  2  0  0  0
 12 16  1  0  0  0
 14 15  1  0  0  0
 14 30  1  0  0  0
 14 31  1  0  0  0
 15 32  1  0  0  0
 16 17  1  0  0  0
 16 33  1  0  0  0
 17 18  1  0  0  0
 17 34  1  0  0  0
 17 35  1  0  0  0
 18 19  2  0  0  0
 18 20  1  0  0  0
M  CHG  2   5  -1  20  -1
M  END
> <s_m_source_file>
/cbio/jclab/home/rustenburg/PFK/Epik-Ligands/Results/InProgress/GLUTATHIONE/pH_7.4/GLUTATHIONE_pH_7.4-before_epik.mol2

> <i_m_source_file_index>
1

> <r_epik_Ionization_Penalty>
  2.7521

> <r_epik_Ionization_Penalty_Charging>
  0.0004

> <r_epik_Ionization_Penalty_Neutral>
  2.7517

> <r_epik_State_Penalty>
  2.9276

> <r_epik_Charging_Adjusted_Penalty>
2.9280125616001

> <i_epik_Tot_Q>
-2

> <i_epik_Tot_abs_Q>
2

$$$$
GSH
                    3D
 Structure written by MMmdl.
 34 33  0  0  1  0            999 V2000
   29.4280   55.6180   21.0350 N   0  0  0  0  0  0
   30.8570   55.3600   20.8190 C   0  0  2  0  0  0
   31.1720   53.8470   20.7060 C   0  0  0  0  0  0
   32.1690   53.4940   20.0680 O   0  0  0  0  0  0
   30.3380   53.0180   21.3090 O   0  5  0  0  0  0
   31.6820   56.0170   21.9480 C   0  0  0  0  0  0
   33.1680   56.2360   21.5350 C   0  0  0  0  0  0
   33.9430   56.7830   22.7670 C   0  0  0  0  0  0
   33.3750   57.4490   23.6470 O   0  0  0  0  0  0
   35.2490   56.4840   22.7930 N   0  0  0  0  0  0
   36.1160   57.1670   23.7590 C   0  0  2  0  0  0
   37.3460   57.7140   23.0170 C   0  0  0  0  0  0
   38.4710   57.7550   23.5310 O   0  0  0  0  0  0
   36.6120   56.1590   24.8260 C   0  0  0  0  0  0
   35.2670   55.4640   25.8370 S   0  5  0  0  0  0
   37.1200   58.1640   21.7610 N   0  0  0  0  0  0
   38.1830   58.6980   20.8980 C   0  0  0  0  0  0
   37.9070   60.1660   20.6210 C   0  0  0  0  0  0
   38.5800   60.6930   19.7190 O   0  0  0  0  0  0
   37.0370   60.7560   21.3120 O   0  5  0  0  0  0
   29.1163   55.1760   21.9928 H   0  0  0  0  0  0
   29.2506   56.7034   21.0570 H   0  0  0  0  0  0
   31.0841   55.8300   19.8507 H   0  0  0  0  0  0
   31.2475   56.9963   22.1974 H   0  0  0  0  0  0
   31.6651   55.3709   22.8381 H   0  0  0  0  0  0
   33.6032   55.2793   21.2106 H   0  0  0  0  0  0
   33.2159   56.9598   20.7080 H   0  0  0  0  0  0
   35.6733   55.7388   22.1040 H   0  0  0  0  0  0
   35.5132   57.9697   24.2088 H   0  0  0  0  0  0
   37.1213   55.3201   24.3291 H   0  0  0  0  0  0
   37.3137   56.6621   25.5076 H   0  0  0  0  0  0
   36.0844   58.1170   21.3930 H   0  0  0  0  0  0
   39.1538   58.5929   21.4044 H   0  0  0  0  0  0
   38.2013   58.1395   19.9505 H   0  0  0  0  0  0
  1  2  1  0  0  0
  1 21  1  0  0  0
  1 22  1  0  0  0
  2  3  1  0  0  0
  2  6  1  0  0  0
  2 23  1  0  0  0
  3  4  2  0  0  0
  3  5  1  0  0  0
  6  7  1  0  0  0
  6 24  1  0  0  0
  6 25  1  0  0  0
  7  8  1  0  0  0
  7 26  1  0  0  0
  7 27  1  0  0  0
  8  9  2  0  0  0
  8 10  1  0  0  0
 10 11  1  0  0  0
 10 28  1  0  0  0
 11 12  1  0  0  0
 11 14  1  0  0  0
 11 29  1  0  0  0
 12 13  2  0  0  0
 12 16  1  0  0  0
 14 15  1  0  0  0
 14 30  1  0  0  0
 14 31  1  0  0  0
 16 17  1  0  0  0
 16 32  1  0  0  0
 17 18  1  0  0  0
 17 33  1  0  0  0
 17 34  1  0  0  0
 18 19  2  0  0  0
 18 20  1  0  0  0
M  CHG  3   5  -1  15  -1  20  -1
M  END
> <s_m_source_file>
/cbio/jclab/home/rustenburg/PFK/Epik-Ligands/Results/InProgress/GLUTATHIONE/pH_7.4/GLUTATHIONE_pH_7.4-before_epik.mol2

> <i_m_source_file_index>
1

> <r_epik_Ionization_Penalty>
  4.7793

> <r_epik_Ionization_Penalty_Charging>
  2.0286

> <r_epik_Ionization_Penalty_Neutral>
  2.7507

> <r_epik_State_Penalty>
  5.0688

> <r_epik_Charging_Adjusted_Penalty>
7.09738796190473

> <i_epik_Tot_Q>
-3

> <i_epik_Tot_abs_Q>
3

$$$$
GSH
                    3D
 Structure written by MMmdl.
 37 36  0  0  1  0            999 V2000
   29.4280   55.6180   21.0350 N   0  3  0  0  0  0
   30.8570   55.3600   20.8190 C   0  0  2  0  0  0
   31.1720   53.8470   20.7060 C   0  0  0  0  0  0
   32.1690   53.4940   20.0680 O   0  0  0  0  0  0
   30.3380   53.0180   21.3090 O   0  5  0  0  0  0
   31.6820   56.0170   21.9480 C   0  0  0  0  0  0
   33.1680   56.2360   21.5350 C   0  0  0  0  0  0
   33.9430   56.7830   22.7670 C   0  0  0  0  0  0
   33.3750   57.4490   23.6470 O   0  0  0  0  0  0
   35.2490   56.4840   22.7930 N   0  0  0  0  0  0
   36.1160   57.1670   23.7590 C   0  0  2  0  0  0
   37.3460   57.7140   23.0170 C   0  0  0  0  0  0
   38.4710   57.7550   23.5310 O   0  0  0  0  0  0
   36.6120   56.1590   24.8260 C   0  0  0  0  0  0
   35.2670   55.4640   25.8370 S   0  0  0  0  0  0
   37.1200   58.1640   21.7610 N   0  0  0  0  0  0
   38.1830   58.6980   20.8980 C   0  0  0  0  0  0
   37.9070   60.1660   20.6210 C   0  0  0  0  0  0
   38.5800   60.6930   19.7190 O   0  0  0  0  0  0
   37.0370   60.7560   21.3120 O   0  0  0  0  0  0
   28.8448   55.1486   20.2291 H   0  0  0  0  0  0
   29.2471   56.7030   21.0344 H   0  0  0  0  0  0
   31.0841   55.8300   19.8507 H   0  0  0  0  0  0
   31.2475   56.9963   22.1974 H   0  0  0  0  0  0
   31.6651   55.3709   22.8381 H   0  0  0  0  0  0
   33.6032   55.2793   21.2106 H   0  0  0  0  0  0
   33.2159   56.9598   20.7080 H   0  0  0  0  0  0
   35.6733   55.7388   22.1040 H   0  0  0  0  0  0
   35.5132   57.9697   24.2088 H   0  0  0  0  0  0
   37.1213   55.3201   24.3291 H   0  0  0  0  0  0
   37.3137   56.6621   25.5076 H   0  0  0  0  0  0
   35.4945   54.7357   26.6293 H   0  0  0  0  0  0
   36.0844   58.1170   21.3930 H   0  0  0  0  0  0
   39.1538   58.5929   21.4044 H   0  0  0  0  0  0
   38.2013   58.1395   19.9505 H   0  0  0  0  0  0
   36.4886   60.2070   22.0917 H   0  0  0  0  0  0
   29.1215   55.1957   22.0034 H   0  0  0  0  0  0
  1  2  1  0  0  0
  1 21  1  0  0  0
  1 22  1  0  0  0
  1 37  1  0  0  0
  2  3  1  0  0  0
  2  6  1  0  0  0
  2 23  1  0  0  0
  3  4  2  0  0  0
  3  5  1  0  0  0
  6  7  1  0  0  0
  6 24  1  0  0  0
  6 25  1  0  0  0
  7  8  1  0  0  0
  7 26  1  0  0  0
  7 27  1  0  0  0
  8  9  2  0  0  0
  8 10  1  0  0  0
 10 11  1  0  0  0
 10 28  1  0  0  0
 11 12  1  0  0  0
 11 14  1  0  0  0
 11 29  1  0  0  0
 12 13  2  0  0  0
 12 16  1  0  0  0
 14 15  1  0  0  0
 14 30  1  0  0  0
 14 31  1  0  0  0
 15 32  1  0  0  0
 16 17  1  0  0  0
 16 33  1  0  0  0
 17 18  1  0  0  0
 17 34  1  0  0  0
 17 35  1  0  0  0
 18 19  2  0  0  0
 18 20  1  0  0  0
 20 36  1  0  0  0
M  CHG  2   1   1   5  -1
M  END
> <s_m_source_file>
/cbio/jclab/home/rustenburg/PFK/Epik-Ligands/Results/InProgress/GLUTATHIONE/pH_7.4/GLUTATHIONE_pH_7.4-before_epik.mol2

> <i_m_source_file_index>
1

> <r_epik_Ionization_Penalty>
  5.4139

> <r_epik_Ionization_Penalty_Charging>
  0.0060

> <r_epik_Ionization_Penalty_Neutral>
  5.4079

> <r_epik_State_Penalty>
  5.7643

> <r_epik_Charging_Adjusted_Penalty>
5.7703338113199

> <i_epik_Tot_Q>
0

> <i_epik_Tot_abs_Q>
2

$$$$
