CRO
                    3D
 Structure written by MMmdl.
 39 40  0  0  1  0            999 V2000
   24.0770   27.5130   36.6100 N   0  0  0  0  0  0
   25.0110   26.4780   37.0780 C   0  0  1  0  0  0
   25.9310   26.0350   35.9300 C   0  0  1  0  0  0
   25.1550   25.4220   34.7960 C   0  0  0  0  0  0
   26.6790   27.1290   35.4610 O   0  0  0  0  0  0
   25.7300   27.1060   38.2450 C   0  0  0  0  0  0
   26.9750   27.7320   38.2160 N   0  0  0  0  0  0
   25.2740   27.1240   39.5090 N   0  0  0  0  0  0
   26.0430   27.8750   40.3700 C   0  0  0  0  0  0
   26.0220   27.9620   41.5660 O   0  0  0  0  0  0
   27.1970   28.2450   39.5120 C   0  0  0  0  0  0
   23.9190   26.7210   39.8420 C   0  0  0  0  0  0
   23.7450   25.3260   40.3600 C   0  0  0  0  0  0
   22.8850   25.1160   41.1930 O   0  0  0  0  0  0
   28.3290   28.8220   39.9600 C   0  0  0  0  0  0
   29.4370   29.3700   39.1240 C   0  0  0  0  0  0
   29.5410   29.1030   37.7420 C   0  0  0  0  0  0
   30.4870   30.1100   39.8050 C   0  0  0  0  0  0
   30.7070   29.5460   37.0330 C   0  0  0  0  0  0
   31.6140   30.5630   39.0850 C   0  0  0  0  0  0
   31.7180   30.3000   37.7210 C   0  0  0  0  0  0
   32.8940   30.8040   36.9710 O   0  0  0  0  0  0
   24.5350   24.3830   39.8490 O   0  6  0  0  0  0
   23.4249   27.8210   37.4406 H   0  0  0  0  0  0
   24.6449   28.3826   36.2478 H   0  0  0  0  0  0
   24.4866   25.5705   37.4120 H   0  0  0  0  0  0
   26.6760   25.3089   36.2875 H   0  0  0  0  0  0
   24.5725   24.5672   35.1702 H   0  0  0  0  0  0
   25.8526   25.0780   34.0181 H   0  0  0  0  0  0
   24.4726   26.1727   34.3707 H   0  0  0  0  0  0
   27.3108   27.7017   36.1559 H   0  0  0  0  0  0
   23.5211   27.3840   40.6244 H   0  0  0  0  0  0
   23.2851   26.7901   38.9456 H   0  0  0  0  0  0
   28.5035   28.9243   41.0412 H   0  0  0  0  0  0
   28.7540   28.5730   37.2260 H   0  0  0  0  0  0
   30.4050   30.3130   40.8620 H   0  0  0  0  0  0
   30.8240   29.3130   35.9850 H   0  0  0  0  0  0
   32.3940   31.1120   39.5910 H   0  0  0  0  0  0
   32.9869   30.6025   35.8936 H   0  0  0  0  0  0
  1  2  1  0  0  0
  1 24  1  0  0  0
  1 25  1  0  0  0
  2  6  1  0  0  0
  2 26  1  0  0  0
  2  3  1  0  0  0
  3 27  1  0  0  0
  3  4  1  0  0  0
  3  5  1  0  0  0
  4 28  1  0  0  0
  4 29  1  0  0  0
  4 30  1  0  0  0
  5 31  1  0  0  0
  6  8  1  0  0  0
  6  7  2  0  0  0
  7 11  1  0  0  0
  8 12  1  0  0  0
  8  9  1  0  0  0
  9 10  2  0  0  0
  9 11  1  0  0  0
 11 15  2  0  0  0
 12 13  1  0  0  0
 12 32  1  0  0  0
 12 33  1  0  0  0
 13 14  2  0  0  0
 13 23  1  0  0  0
 15 34  1  0  0  0
 15 16  1  0  0  0
 16 18  2  0  0  0
 16 17  1  0  0  0
 17 35  1  0  0  0
 17 19  2  0  0  0
 18 36  1  0  0  0
 18 20  1  0  0  0
 19 21  1  0  0  0
 19 37  1  0  0  0
 20 38  1  0  0  0
 20 21  2  0  0  0
 21 22  1  0  0  0
 22 39  1  0  0  0
M  CHG  1  23  -2
M  END
> <s_m_source_file>
/cbio/jclab/home/rustenburg/PFK/Epik-Ligands/Results/InProgress/PEPTIDE DERIVED CHROMOPHORE/pH_7.4/PEPTIDE DERIVED CHROMOPHORE_pH_7.4-before_epik.mol2

> <i_m_source_file_index>
1

> <r_lp_tautomer_probability>
0.5

> <r_epik_Ionization_Penalty>
  0.2086

> <r_epik_Ionization_Penalty_Charging>
  0.0000

> <r_epik_Ionization_Penalty_Neutral>
  0.2086

> <r_epik_State_Penalty>
  0.2226

> <r_epik_Charging_Adjusted_Penalty>
0.22264953529807

> <i_epik_Tot_Q>
-2

> <i_epik_Tot_abs_Q>
2

> <s_epik_Chemistry_Notes>
This compound has an imine and may undergo hydrolysis.

$$$$
CRO
                    3D
 Structure written by MMmdl.
 38 39  0  0  1  0            999 V2000
   24.0770   27.5130   36.6100 N   0  0  0  0  0  0
   25.0110   26.4780   37.0780 C   0  0  1  0  0  0
   25.9310   26.0350   35.9300 C   0  0  1  0  0  0
   25.1550   25.4220   34.7960 C   0  0  0  0  0  0
   26.6790   27.1290   35.4610 O   0  0  0  0  0  0
   25.7300   27.1060   38.2450 C   0  0  0  0  0  0
   26.9750   27.7320   38.2160 N   0  0  0  0  0  0
   25.2740   27.1240   39.5090 N   0  0  0  0  0  0
   26.0430   27.8750   40.3700 C   0  0  0  0  0  0
   26.0220   27.9620   41.5660 O   0  0  0  0  0  0
   27.1970   28.2450   39.5120 C   0  0  0  0  0  0
   23.9190   26.7210   39.8420 C   0  0  0  0  0  0
   23.7450   25.3260   40.3600 C   0  0  0  0  0  0
   22.8850   25.1160   41.1930 O   0  0  0  0  0  0
   28.3290   28.8220   39.9600 C   0  0  0  0  0  0
   29.4370   29.3700   39.1240 C   0  0  0  0  0  0
   29.5410   29.1030   37.7420 C   0  0  0  0  0  0
   30.4870   30.1100   39.8050 C   0  0  0  0  0  0
   30.7070   29.5460   37.0330 C   0  0  0  0  0  0
   31.6140   30.5630   39.0850 C   0  0  0  0  0  0
   31.7180   30.3000   37.7210 C   0  0  0  0  0  0
   32.8940   30.8040   36.9710 O   0  5  0  0  0  0
   24.5350   24.3830   39.8490 O   0  6  0  0  0  0
   23.4249   27.8210   37.4406 H   0  0  0  0  0  0
   24.6449   28.3826   36.2478 H   0  0  0  0  0  0
   24.4866   25.5705   37.4120 H   0  0  0  0  0  0
   26.6760   25.3089   36.2875 H   0  0  0  0  0  0
   24.5725   24.5672   35.1702 H   0  0  0  0  0  0
   25.8526   25.0780   34.0181 H   0  0  0  0  0  0
   24.4726   26.1727   34.3707 H   0  0  0  0  0  0
   27.3108   27.7017   36.1559 H   0  0  0  0  0  0
   23.5211   27.3840   40.6244 H   0  0  0  0  0  0
   23.2851   26.7901   38.9456 H   0  0  0  0  0  0
   28.5035   28.9243   41.0412 H   0  0  0  0  0  0
   28.7540   28.5730   37.2260 H   0  0  0  0  0  0
   30.4050   30.3130   40.8620 H   0  0  0  0  0  0
   30.8240   29.3130   35.9850 H   0  0  0  0  0  0
   32.3940   31.1120   39.5910 H   0  0  0  0  0  0
  1  2  1  0  0  0
  1 24  1  0  0  0
  1 25  1  0  0  0
  2  6  1  0  0  0
  2 26  1  0  0  0
  2  3  1  0  0  0
  3 27  1  0  0  0
  3  4  1  0  0  0
  3  5  1  0  0  0
  4 28  1  0  0  0
  4 29  1  0  0  0
  4 30  1  0  0  0
  5 31  1  0  0  0
  6  8  1  0  0  0
  6  7  2  0  0  0
  7 11  1  0  0  0
  8 12  1  0  0  0
  8  9  1  0  0  0
  9 10  2  0  0  0
  9 11  1  0  0  0
 11 15  2  0  0  0
 12 13  1  0  0  0
 12 32  1  0  0  0
 12 33  1  0  0  0
 13 14  2  0  0  0
 13 23  1  0  0  0
 15 34  1  0  0  0
 15 16  1  0  0  0
 16 18  2  0  0  0
 16 17  1  0  0  0
 17 35  1  0  0  0
 17 19  2  0  0  0
 18 36  1  0  0  0
 18 20  1  0  0  0
 19 21  1  0  0  0
 19 37  1  0  0  0
 20 38  1  0  0  0
 20 21  2  0  0  0
 21 22  1  0  0  0
M  CHG  2  22  -1  23  -2
M  END
> <s_m_source_file>
/cbio/jclab/home/rustenburg/PFK/Epik-Ligands/Results/InProgress/PEPTIDE DERIVED CHROMOPHORE/pH_7.4/PEPTIDE DERIVED CHROMOPHORE_pH_7.4-before_epik.mol2

> <i_m_source_file_index>
1

> <r_lp_tautomer_probability>
0.5

> <r_epik_Ionization_Penalty>
  0.7305

> <r_epik_Ionization_Penalty_Charging>
  0.7274

> <r_epik_Ionization_Penalty_Neutral>
  0.0032

> <r_epik_State_Penalty>
  0.6946

> <r_epik_Charging_Adjusted_Penalty>
1.42192740607858

> <i_epik_Tot_Q>
-3

> <i_epik_Tot_abs_Q>
3

> <s_epik_Chemistry_Notes>
This compound has an imine and may undergo hydrolysis.

$$$$
CRO
                    3D
 Structure written by MMmdl.
 40 41  0  0  1  0            999 V2000
   24.0770   27.5130   36.6100 N   0  3  0  0  0  0
   25.0110   26.4780   37.0780 C   0  0  1  0  0  0
   25.9310   26.0350   35.9300 C   0  0  1  0  0  0
   25.1550   25.4220   34.7960 C   0  0  0  0  0  0
   26.6790   27.1290   35.4610 O   0  0  0  0  0  0
   25.7300   27.1060   38.2450 C   0  0  0  0  0  0
   26.9750   27.7320   38.2160 N   0  0  0  0  0  0
   25.2740   27.1240   39.5090 N   0  0  0  0  0  0
   26.0430   27.8750   40.3700 C   0  0  0  0  0  0
   26.0220   27.9620   41.5660 O   0  0  0  0  0  0
   27.1970   28.2450   39.5120 C   0  0  0  0  0  0
   23.9190   26.7210   39.8420 C   0  0  0  0  0  0
   23.7450   25.3260   40.3600 C   0  0  0  0  0  0
   22.8850   25.1160   41.1930 O   0  0  0  0  0  0
   28.3290   28.8220   39.9600 C   0  0  0  0  0  0
   29.4370   29.3700   39.1240 C   0  0  0  0  0  0
   29.5410   29.1030   37.7420 C   0  0  0  0  0  0
   30.4870   30.1100   39.8050 C   0  0  0  0  0  0
   30.7070   29.5460   37.0330 C   0  0  0  0  0  0
   31.6140   30.5630   39.0850 C   0  0  0  0  0  0
   31.7180   30.3000   37.7210 C   0  0  0  0  0  0
   32.8940   30.8040   36.9710 O   0  0  0  0  0  0
   24.5350   24.3830   39.8490 O   0  6  0  0  0  0
   23.4249   27.8210   37.4406 H   0  0  0  0  0  0
   23.4626   27.1095   35.7916 H   0  0  0  0  0  0
   24.4866   25.5705   37.4120 H   0  0  0  0  0  0
   26.6760   25.3089   36.2875 H   0  0  0  0  0  0
   24.5725   24.5672   35.1702 H   0  0  0  0  0  0
   25.8526   25.0780   34.0181 H   0  0  0  0  0  0
   24.4726   26.1727   34.3707 H   0  0  0  0  0  0
   27.3108   27.7017   36.1559 H   0  0  0  0  0  0
   23.5211   27.3840   40.6244 H   0  0  0  0  0  0
   23.2851   26.7901   38.9456 H   0  0  0  0  0  0
   28.5035   28.9243   41.0412 H   0  0  0  0  0  0
   28.7540   28.5730   37.2260 H   0  0  0  0  0  0
   30.4050   30.3130   40.8620 H   0  0  0  0  0  0
   30.8240   29.3130   35.9850 H   0  0  0  0  0  0
   32.3940   31.1120   39.5910 H   0  0  0  0  0  0
   32.9869   30.6025   35.8936 H   0  0  0  0  0  0
   24.6449   28.3826   36.2478 H   0  0  0  0  0  0
  1  2  1  0  0  0
  1 24  1  0  0  0
  1 25  1  0  0  0
  1 40  1  0  0  0
  2  6  1  0  0  0
  2 26  1  0  0  0
  2  3  1  0  0  0
  3 27  1  0  0  0
  3  4  1  0  0  0
  3  5  1  0  0  0
  4 28  1  0  0  0
  4 29  1  0  0  0
  4 30  1  0  0  0
  5 31  1  0  0  0
  6  8  1  0  0  0
  6  7  2  0  0  0
  7 11  1  0  0  0
  8 12  1  0  0  0
  8  9  1  0  0  0
  9 10  2  0  0  0
  9 11  1  0  0  0
 11 15  2  0  0  0
 12 13  1  0  0  0
 12 32  1  0  0  0
 12 33  1  0  0  0
 13 14  2  0  0  0
 13 23  1  0  0  0
 15 34  1  0  0  0
 15 16  1  0  0  0
 16 18  2  0  0  0
 16 17  1  0  0  0
 17 35  1  0  0  0
 17 19  2  0  0  0
 18 36  1  0  0  0
 18 20  1  0  0  0
 19 21  1  0  0  0
 19 37  1  0  0  0
 20 38  1  0  0  0
 20 21  2  0  0  0
 21 22  1  0  0  0
 22 39  1  0  0  0
M  CHG  2   1   1  23  -2
M  END
> <s_m_source_file>
/cbio/jclab/home/rustenburg/PFK/Epik-Ligands/Results/InProgress/PEPTIDE DERIVED CHROMOPHORE/pH_7.4/PEPTIDE DERIVED CHROMOPHORE_pH_7.4-before_epik.mol2

> <i_m_source_file_index>
1

> <r_lp_tautomer_probability>
0.5

> <r_epik_Ionization_Penalty>
  3.4186

> <r_epik_Ionization_Penalty_Charging>
  3.1008

> <r_epik_Ionization_Penalty_Neutral>
  0.3178

> <r_epik_State_Penalty>
  3.6131

> <r_epik_Charging_Adjusted_Penalty>
6.71384497716905

> <i_epik_Tot_Q>
-1

> <i_epik_Tot_abs_Q>
3

> <s_epik_Chemistry_Notes>
This compound has an imine and may undergo hydrolysis.

$$$$
CRO
                    3D
 Structure written by MMmdl.
 39 40  0  0  1  0            999 V2000
   24.0770   27.5130   36.6100 N   0  3  0  0  0  0
   25.0110   26.4780   37.0780 C   0  0  1  0  0  0
   25.9310   26.0350   35.9300 C   0  0  1  0  0  0
   25.1550   25.4220   34.7960 C   0  0  0  0  0  0
   26.6790   27.1290   35.4610 O   0  0  0  0  0  0
   25.7300   27.1060   38.2450 C   0  0  0  0  0  0
   26.9750   27.7320   38.2160 N   0  0  0  0  0  0
   25.2740   27.1240   39.5090 N   0  0  0  0  0  0
   26.0430   27.8750   40.3700 C   0  0  0  0  0  0
   26.0220   27.9620   41.5660 O   0  0  0  0  0  0
   27.1970   28.2450   39.5120 C   0  0  0  0  0  0
   23.9190   26.7210   39.8420 C   0  0  0  0  0  0
   23.7450   25.3260   40.3600 C   0  0  0  0  0  0
   22.8850   25.1160   41.1930 O   0  0  0  0  0  0
   28.3290   28.8220   39.9600 C   0  0  0  0  0  0
   29.4370   29.3700   39.1240 C   0  0  0  0  0  0
   29.5410   29.1030   37.7420 C   0  0  0  0  0  0
   30.4870   30.1100   39.8050 C   0  0  0  0  0  0
   30.7070   29.5460   37.0330 C   0  0  0  0  0  0
   31.6140   30.5630   39.0850 C   0  0  0  0  0  0
   31.7180   30.3000   37.7210 C   0  0  0  0  0  0
   32.8940   30.8040   36.9710 O   0  5  0  0  0  0
   24.5350   24.3830   39.8490 O   0  6  0  0  0  0
   23.4249   27.8210   37.4406 H   0  0  0  0  0  0
   23.4626   27.1095   35.7916 H   0  0  0  0  0  0
   24.4866   25.5705   37.4120 H   0  0  0  0  0  0
   26.6760   25.3089   36.2875 H   0  0  0  0  0  0
   24.5725   24.5672   35.1702 H   0  0  0  0  0  0
   25.8526   25.0780   34.0181 H   0  0  0  0  0  0
   24.4726   26.1727   34.3707 H   0  0  0  0  0  0
   27.3108   27.7017   36.1559 H   0  0  0  0  0  0
   23.5211   27.3840   40.6244 H   0  0  0  0  0  0
   23.2851   26.7901   38.9456 H   0  0  0  0  0  0
   28.5035   28.9243   41.0412 H   0  0  0  0  0  0
   28.7540   28.5730   37.2260 H   0  0  0  0  0  0
   30.4050   30.3130   40.8620 H   0  0  0  0  0  0
   30.8240   29.3130   35.9850 H   0  0  0  0  0  0
   32.3940   31.1120   39.5910 H   0  0  0  0  0  0
   24.6449   28.3826   36.2478 H   0  0  0  0  0  0
  1  2  1  0  0  0
  1 24  1  0  0  0
  1 25  1  0  0  0
  1 39  1  0  0  0
  2  6  1  0  0  0
  2 26  1  0  0  0
  2  3  1  0  0  0
  3 27  1  0  0  0
  3  4  1  0  0  0
  3  5  1  0  0  0
  4 28  1  0  0  0
  4 29  1  0  0  0
  4 30  1  0  0  0
  5 31  1  0  0  0
  6  8  1  0  0  0
  6  7  2  0  0  0
  7 11  1  0  0  0
  8 12  1  0  0  0
  8  9  1  0  0  0
  9 10  2  0  0  0
  9 11  1  0  0  0
 11 15  2  0  0  0
 12 13  1  0  0  0
 12 32  1  0  0  0
 12 33  1  0  0  0
 13 14  2  0  0  0
 13 23  1  0  0  0
 15 34  1  0  0  0
 15 16  1  0  0  0
 16 18  2  0  0  0
 16 17  1  0  0  0
 17 35  1  0  0  0
 17 19  2  0  0  0
 18 36  1  0  0  0
 18 20  1  0  0  0
 19 21  1  0  0  0
 19 37  1  0  0  0
 20 38  1  0  0  0
 20 21  2  0  0  0
 21 22  1  0  0  0
M  CHG  3   1   1  22  -1  23  -2
M  END
> <s_m_source_file>
/cbio/jclab/home/rustenburg/PFK/Epik-Ligands/Results/InProgress/PEPTIDE DERIVED CHROMOPHORE/pH_7.4/PEPTIDE DERIVED CHROMOPHORE_pH_7.4-before_epik.mol2

> <i_m_source_file_index>
1

> <r_epik_Ionization_Penalty>
  3.6218

> <r_epik_Ionization_Penalty_Charging>
  3.6217

> <r_epik_Ionization_Penalty_Neutral>
  0.0001

> <r_epik_State_Penalty>
  3.9149

> <r_epik_Charging_Adjusted_Penalty>
7.53661999182822

> <i_epik_Tot_Q>
-2

> <i_epik_Tot_abs_Q>
4

> <s_epik_Chemistry_Notes>
This compound has an imine and may undergo hydrolysis.

$$$$
