@<TRIPOS>MOLECULE
GTP
   48    50     1     0     0
SMALL
NO_CHARGES

@<TRIPOS>ATOM
      1  PG         4.5660   31.3910   21.6350 P.3       1 GTP         0.0000
      2  O1G        4.6130   31.9070   23.0690 O.2       1 GTP         0.0000
      3  O2G        3.8920   32.3190   20.6310 O.3       1 GTP         0.0000
      4  O3G        4.1430   30.0120   21.6130 O.3       1 GTP         0.0000
      5  O3B        6.1600   31.3600   21.2280 O.3       1 GTP         0.0000
      6  PB         6.8770   31.2020   19.7450 P.3       1 GTP         0.0000
      7  O1B        7.0790   29.7090   19.4730 O.2       1 GTP         0.0000
      8  O2B        6.1250   31.9700   18.7490 O.3       1 GTP         0.0000
      9  O3A        8.2510   31.8900   20.0030 O.3       1 GTP         0.0000
     10  PA         8.8460   33.2610   19.4110 P.3       1 GTP         0.0000
     11  O1A        8.8880   33.2560   17.9570 O.2       1 GTP         0.0000
     12  O2A        8.1050   34.3980   20.1290 O.3       1 GTP         0.0000
     13  O5'       10.4300   33.1530   19.9000 O.3       1 GTP         0.0000
     14  C5'       10.5490   33.0440   21.3780 C.3       1 GTP         0.0000
     15  C4'       12.0460   33.6180   21.4740 C.3       1 GTP         0.0000
     16  O4'       13.0520   32.8300   20.8180 O.3       1 GTP         0.0000
     17  C3'       12.3070   34.9690   21.0570 C.3       1 GTP         0.0000
     18  O3'       13.1090   35.6720   21.9710 O.3       1 GTP         0.0000
     19  C2'       12.8390   34.9710   19.5930 C.3       1 GTP         0.0000
     20  O2'       13.6720   35.9610   19.3550 O.3       1 GTP         0.0000
     21  C1'       13.8460   33.6220   19.9270 C.3       1 GTP         0.0000
     22  N9        14.0010   32.8330   18.6490 N.pl3     1 GTP         0.0000
     23  C8        12.9340   32.4520   17.8480 C.ar      1 GTP         0.0000
     24  N7        13.6400   31.7980   16.8990 N.ar      1 GTP         0.0000
     25  C5        15.0290   31.8890   17.0010 C.ar      1 GTP         0.0000
     26  C6        15.8990   31.3940   16.2380 C.ar      1 GTP         0.0000
     27  O6        15.9820   30.6800   15.1910 O.2       1 GTP         0.0000
     28  N1        17.2740   31.6280   16.8000 N.am      1 GTP         0.0000
     29  C2        17.3040   32.2950   17.8960 C.ar      1 GTP         0.0000
     30  N2        18.6770   32.4500   18.4750 N.pl3     1 GTP         0.0000
     31  N3        16.3840   32.7360   18.7390 N.ar      1 GTP         0.0000
     32  C4        15.2180   32.5170   18.1350 C.ar      1 GTP         0.0000
     33 HOG2        3.5950   33.1050   21.0750 H         1 GTP         0.0000
     34 HOG3        3.9820   29.7150   22.5010 H         1 GTP         0.0000
     35 HOB2        5.8580   31.3960   18.0410 H         1 GTP         0.0000
     36 HOA2        7.7430   34.9960   19.4860 H         1 GTP         0.0000
     37  H5'        9.8190   33.6720   21.9100 H         1 GTP         0.0000
     38 H5''       10.4690   32.0070   21.7350 H         1 GTP         0.0000
     39  H4'       12.2830   33.5810   22.5480 H         1 GTP         0.0000
     40  H3'       11.3350   35.4820   21.0160 H         1 GTP         0.0000
     41 HO3'       13.2530   36.5550   21.6530 H         1 GTP         0.0000
     42  H2'       12.0750   34.7300   18.8400 H         1 GTP         0.0000
     43 HO2'       13.9660   35.9180   18.4530 H         1 GTP         0.0000
     44  H1'       14.8050   33.9580   20.3470 H         1 GTP         0.0000
     45  H8        11.8730   32.6240   17.9510 H         1 GTP         0.0000
     46  HN1       18.1020   31.2900   16.3540 H         1 GTP         0.0000
     47 HN21       18.7940   32.8450   19.3860 H         1 GTP         0.0000
     48 HN22       19.4770   32.1590   17.9500 H         1 GTP         0.0000
@<TRIPOS>BOND
     1    1    2 2
     2    1    3 1
     3    1    4 1
     4    1    5 1
     5    3   33 1
     6    4   34 1
     7    5    6 1
     8    6    7 2
     9    6    8 1
    10    6    9 1
    11    8   35 1
    12    9   10 1
    13   10   11 2
    14   10   12 1
    15   10   13 1
    16   12   36 1
    17   13   14 1
    18   14   15 1
    19   14   37 1
    20   14   38 1
    21   15   16 1
    22   15   17 1
    23   15   39 1
    24   16   21 1
    25   17   18 1
    26   17   19 1
    27   17   40 1
    28   18   41 1
    29   19   20 1
    30   19   21 1
    31   19   42 1
    32   20   43 1
    33   21   22 1
    34   21   44 1
    35   22   23 ar
    36   22   32 ar
    37   23   24 ar
    38   23   45 1
    39   24   25 ar
    40   25   26 ar
    41   25   32 ar
    42   26   27 2
    43   26   28 ar
    44   28   29 ar
    45   28   46 1
    46   29   30 1
    47   29   31 ar
    48   30   47 1
    49   30   48 1
    50   31   32 ar
@<TRIPOS>SUBSTRUCTURE
     1 GTP         1 GROUP 0 A     ****
