GTP
  CCTOOLS-0326171053

 48 50  0  0  1  0  0  0  0  0999 V2000
    4.5660   31.3910   21.6350 P   0  0  0  0  0
    4.6130   31.9070   23.0690 O   0  0  0  0  0
    3.8920   32.3190   20.6310 O   0  0  0  0  0
    4.1430   30.0120   21.6130 O   0  0  0  0  0
    6.1600   31.3600   21.2280 O   0  0  0  0  0
    6.8770   31.2020   19.7450 P   0  0  0  0  0
    7.0790   29.7090   19.4730 O   0  0  0  0  0
    6.1250   31.9700   18.7490 O   0  0  0  0  0
    8.2510   31.8900   20.0030 O   0  0  0  0  0
    8.8460   33.2610   19.4110 P   0  0  0  0  0
    8.8880   33.2560   17.9570 O   0  0  0  0  0
    8.1050   34.3980   20.1290 O   0  0  0  0  0
   10.4300   33.1530   19.9000 O   0  0  0  0  0
   10.5490   33.0440   21.3780 C   0  0  0  0  0
   12.0460   33.6180   21.4740 C   0  0  0  0  0
   13.0520   32.8300   20.8180 O   0  0  0  0  0
   12.3070   34.9690   21.0570 C   0  0  0  0  0
   13.1090   35.6720   21.9710 O   0  0  0  0  0
   12.8390   34.9710   19.5930 C   0  0  0  0  0
   13.6720   35.9610   19.3550 O   0  0  0  0  0
   13.8460   33.6220   19.9270 C   0  0  0  0  0
   14.0010   32.8330   18.6490 N   0  0  0  0  0
   12.9340   32.4520   17.8480 C   0  0  0  0  0
   13.6400   31.7980   16.8990 N   0  0  0  0  0
   15.0290   31.8890   17.0010 C   0  0  0  0  0
   15.8990   31.3940   16.2380 C   0  0  0  0  0
   15.9820   30.6800   15.1910 O   0  0  0  0  0
   17.2740   31.6280   16.8000 N   0  0  0  0  0
   17.3040   32.2950   17.8960 C   0  0  0  0  0
   18.6770   32.4500   18.4750 N   0  0  0  0  0
   16.3840   32.7360   18.7390 N   0  0  0  0  0
   15.2180   32.5170   18.1350 C   0  0  0  0  0
    3.5950   33.1050   21.0750 H   0  0  0  0  0
    3.9820   29.7150   22.5010 H   0  0  0  0  0
    5.8580   31.3960   18.0410 H   0  0  0  0  0
    7.7430   34.9960   19.4860 H   0  0  0  0  0
    9.8190   33.6720   21.9100 H   0  0  0  0  0
   10.4690   32.0070   21.7350 H   0  0  0  0  0
   12.2830   33.5810   22.5480 H   0  0  0  0  0
   11.3350   35.4820   21.0160 H   0  0  0  0  0
   13.2530   36.5550   21.6530 H   0  0  0  0  0
   12.0750   34.7300   18.8400 H   0  0  0  0  0
   13.9660   35.9180   18.4530 H   0  0  0  0  0
   14.8050   33.9580   20.3470 H   0  0  0  0  0
   11.8730   32.6240   17.9510 H   0  0  0  0  0
   18.1020   31.2900   16.3540 H   0  0  0  0  0
   18.7940   32.8450   19.3860 H   0  0  0  0  0
   19.4770   32.1590   17.9500 H   0  0  0  0  0
  1  2  2  0  0  0
  1  3  1  0  0  0
  1  4  1  0  0  0
  1  5  1  0  0  0
  3 33  1  0  0  0
  4 34  1  0  0  0
  5  6  1  0  0  0
  6  7  2  0  0  0
  6  8  1  0  0  0
  6  9  1  0  0  0
  8 35  1  0  0  0
  9 10  1  0  0  0
 10 11  2  0  0  0
 10 12  1  0  0  0
 10 13  1  0  0  0
 12 36  1  0  0  0
 13 14  1  0  0  0
 14 15  1  0  0  0
 14 37  1  0  0  0
 14 38  1  0  0  0
 15 16  1  0  0  0
 15 17  1  0  0  0
 15 39  1  0  0  0
 16 21  1  0  0  0
 17 18  1  0  0  0
 17 19  1  0  0  0
 17 40  1  0  0  0
 18 41  1  0  0  0
 19 20  1  0  0  0
 19 21  1  0  0  0
 19 42  1  0  0  0
 20 43  1  0  0  0
 21 22  1  0  0  0
 21 44  1  0  0  0
 22 23  1  0  0  0
 22 32  1  0  0  0
 23 24  2  0  0  0
 23 45  1  0  0  0
 24 25  1  0  0  0
 25 26  1  0  0  0
 25 32  2  0  0  0
 26 27  2  0  0  0
 26 28  1  0  0  0
 28 29  1  0  0  0
 28 46  1  0  0  0
 29 30  1  0  0  0
 29 31  2  0  0  0
 30 47  1  0  0  0
 30 48  1  0  0  0
 31 32  1  0  0  0
M  END
$$$$
