PLP
                    3D
 Structure written by MMmdl.
 23 23  0  0  1  0            999 V2000
  -14.3330   14.0520   -8.3860 N   0  0  0  0  0  0
  -13.0670   14.1640   -7.9320 C   0  0  0  0  0  0
  -12.5230   15.5540   -7.6740 C   0  0  0  0  0  0
  -12.3130   12.9900   -7.7180 C   0  0  0  0  0  0
  -11.0530   13.1590   -7.2400 O   0  5  0  0  0  0
  -12.8690   11.7450   -7.9410 C   0  0  0  0  0  0
  -12.0000   10.5750   -8.1130 C   0  0  0  0  0  0
  -10.8480   10.7480   -8.7890 O   0  0  0  0  0  0
  -14.2050   11.7230   -8.4280 C   0  0  0  0  0  0
  -14.9090   12.8520   -8.6360 C   0  0  0  0  0  0
  -14.8540   10.3400   -8.6840 C   0  0  0  0  0  0
  -14.9550    9.6800   -7.4040 O   0  0  0  0  0  0
  -15.9170    8.4130   -7.1770 P   0  0  0  0  0  0
  -15.4670    7.4080   -8.2390 O   0  0  0  0  0  0
  -15.6850    7.9810   -5.7620 O   0  5  0  0  0  0
  -17.2790    8.8940   -7.4180 O   0  5  0  0  0  0
  -13.2947   16.3002   -7.9141 H   0  0  0  0  0  0
  -11.6387   15.7247   -8.3056 H   0  0  0  0  0  0
  -12.2405   15.6464   -6.6149 H   0  0  0  0  0  0
  -12.2596    9.5836   -7.7132 H   0  0  0  0  0  0
  -15.9460   12.7940   -9.0070 H   0  0  0  0  0  0
  -15.8498   10.4792   -9.1300 H   0  0  0  0  0  0
  -14.2218    9.7600   -9.3724 H   0  0  0  0  0  0
  1  2  2  0  0  0
  1 10  1  0  0  0
  2  3  1  0  0  0
  2  4  1  0  0  0
  3 17  1  0  0  0
  3 18  1  0  0  0
  3 19  1  0  0  0
  4  5  1  0  0  0
  4  6  2  0  0  0
  6  7  1  0  0  0
  6  9  1  0  0  0
  7  8  2  0  0  0
  7 20  1  0  0  0
  9 10  2  0  0  0
  9 11  1  0  0  0
 10 21  1  0  0  0
 11 12  1  0  0  0
 11 22  1  0  0  0
 11 23  1  0  0  0
 12 13  1  0  0  0
 13 14  2  0  0  0
 13 15  1  0  0  0
 13 16  1  0  0  0
M  CHG  3   5  -1  15  -1  16  -1
M  END
> <s_m_source_file>
/cbio/jclab/home/rustenburg/PFK/Epik-Ligands/Results/InProgress/PYRIDOXAL-5'-PHOSPHATE/pH_10.0/PYRIDOXAL-5'-PHOSPHATE_pH_10.0-before_epik.mol2

> <i_m_source_file_index>
1

> <r_epik_Ionization_Penalty>
  0.0276

> <r_epik_Ionization_Penalty_Charging>
  0.0015

> <r_epik_Ionization_Penalty_Neutral>
  0.0261

> <r_epik_State_Penalty>
  0.0223

> <r_epik_Charging_Adjusted_Penalty>
0.0237580478488915

> <i_epik_Tot_Q>
-3

> <i_epik_Tot_abs_Q>
3

$$$$
PLP
                    3D
 Structure written by MMmdl.
 24 24  0  0  1  0            999 V2000
  -14.3330   14.0520   -8.3860 N   0  3  0  0  0  0
  -13.0670   14.1640   -7.9320 C   0  0  0  0  0  0
  -12.5230   15.5540   -7.6740 C   0  0  0  0  0  0
  -12.3130   12.9900   -7.7180 C   0  0  0  0  0  0
  -11.0530   13.1590   -7.2400 O   0  5  0  0  0  0
  -12.8690   11.7450   -7.9410 C   0  0  0  0  0  0
  -12.0000   10.5750   -8.1130 C   0  0  0  0  0  0
  -10.8480   10.7480   -8.7890 O   0  0  0  0  0  0
  -14.2050   11.7230   -8.4280 C   0  0  0  0  0  0
  -14.9090   12.8520   -8.6360 C   0  0  0  0  0  0
  -14.8540   10.3400   -8.6840 C   0  0  0  0  0  0
  -14.9550    9.6800   -7.4040 O   0  0  0  0  0  0
  -15.9170    8.4130   -7.1770 P   0  0  0  0  0  0
  -15.4670    7.4080   -8.2390 O   0  0  0  0  0  0
  -15.6850    7.9810   -5.7620 O   0  5  0  0  0  0
  -17.2790    8.8940   -7.4180 O   0  5  0  0  0  0
  -13.2947   16.3002   -7.9141 H   0  0  0  0  0  0
  -11.6387   15.7247   -8.3056 H   0  0  0  0  0  0
  -12.2405   15.6464   -6.6149 H   0  0  0  0  0  0
  -12.2596    9.5836   -7.7132 H   0  0  0  0  0  0
  -15.9460   12.7940   -9.0070 H   0  0  0  0  0  0
  -15.8498   10.4792   -9.1300 H   0  0  0  0  0  0
  -14.2218    9.7600   -9.3724 H   0  0  0  0  0  0
  -14.9348   14.9551   -8.5657 H   0  0  0  0  0  0
  1  2  2  0  0  0
  1 10  1  0  0  0
  1 24  1  0  0  0
  2  3  1  0  0  0
  2  4  1  0  0  0
  3 17  1  0  0  0
  3 18  1  0  0  0
  3 19  1  0  0  0
  4  5  1  0  0  0
  4  6  2  0  0  0
  6  7  1  0  0  0
  6  9  1  0  0  0
  7  8  2  0  0  0
  7 20  1  0  0  0
  9 10  2  0  0  0
  9 11  1  0  0  0
 10 21  1  0  0  0
 11 12  1  0  0  0
 11 22  1  0  0  0
 11 23  1  0  0  0
 12 13  1  0  0  0
 13 14  2  0  0  0
 13 15  1  0  0  0
 13 16  1  0  0  0
M  CHG  4   1   1   5  -1  15  -1  16  -1
M  END
> <s_m_source_file>
/cbio/jclab/home/rustenburg/PFK/Epik-Ligands/Results/InProgress/PYRIDOXAL-5'-PHOSPHATE/pH_10.0/PYRIDOXAL-5'-PHOSPHATE_pH_10.0-before_epik.mol2

> <i_m_source_file_index>
1

> <r_epik_Ionization_Penalty>
  1.8628

> <r_epik_Ionization_Penalty_Charging>
  1.8628

> <r_epik_Ionization_Penalty_Neutral>
  0.0000

> <r_epik_State_Penalty>
  1.9821

> <r_epik_Charging_Adjusted_Penalty>
3.84486132815245

> <i_epik_Tot_Q>
-2

> <i_epik_Tot_abs_Q>
4

$$$$
PLP
                    3D
 Structure written by MMmdl.
 24 24  0  0  1  0            999 V2000
  -14.3330   14.0520   -8.3860 N   0  0  0  0  0  0
  -13.0670   14.1640   -7.9320 C   0  0  0  0  0  0
  -12.5230   15.5540   -7.6740 C   0  0  0  0  0  0
  -12.3130   12.9900   -7.7180 C   0  0  0  0  0  0
  -11.0530   13.1590   -7.2400 O   0  0  0  0  0  0
  -12.8690   11.7450   -7.9410 C   0  0  0  0  0  0
  -12.0000   10.5750   -8.1130 C   0  0  0  0  0  0
  -10.8480   10.7480   -8.7890 O   0  0  0  0  0  0
  -14.2050   11.7230   -8.4280 C   0  0  0  0  0  0
  -14.9090   12.8520   -8.6360 C   0  0  0  0  0  0
  -14.8540   10.3400   -8.6840 C   0  0  0  0  0  0
  -14.9550    9.6800   -7.4040 O   0  0  0  0  0  0
  -15.9170    8.4130   -7.1770 P   0  0  0  0  0  0
  -15.4670    7.4080   -8.2390 O   0  0  0  0  0  0
  -15.6850    7.9810   -5.7620 O   0  5  0  0  0  0
  -17.2790    8.8940   -7.4180 O   0  5  0  0  0  0
  -13.2947   16.3002   -7.9141 H   0  0  0  0  0  0
  -11.6387   15.7247   -8.3056 H   0  0  0  0  0  0
  -12.2405   15.6464   -6.6149 H   0  0  0  0  0  0
  -10.6569   14.1726   -7.0798 H   0  0  0  0  0  0
  -12.2596    9.5836   -7.7132 H   0  0  0  0  0  0
  -15.9460   12.7940   -9.0070 H   0  0  0  0  0  0
  -15.8498   10.4792   -9.1300 H   0  0  0  0  0  0
  -14.2218    9.7600   -9.3724 H   0  0  0  0  0  0
  1  2  2  0  0  0
  1 10  1  0  0  0
  2  3  1  0  0  0
  2  4  1  0  0  0
  3 17  1  0  0  0
  3 18  1  0  0  0
  3 19  1  0  0  0
  4  5  1  0  0  0
  4  6  2  0  0  0
  5 20  1  0  0  0
  6  7  1  0  0  0
  6  9  1  0  0  0
  7  8  2  0  0  0
  7 21  1  0  0  0
  9 10  2  0  0  0
  9 11  1  0  0  0
 10 22  1  0  0  0
 11 12  1  0  0  0
 11 23  1  0  0  0
 11 24  1  0  0  0
 12 13  1  0  0  0
 13 14  2  0  0  0
 13 15  1  0  0  0
 13 16  1  0  0  0
M  CHG  2  15  -1  16  -1
M  END
> <s_m_source_file>
/cbio/jclab/home/rustenburg/PFK/Epik-Ligands/Results/InProgress/PYRIDOXAL-5'-PHOSPHATE/pH_10.0/PYRIDOXAL-5'-PHOSPHATE_pH_10.0-before_epik.mol2

> <i_m_source_file_index>
1

> <r_epik_Ionization_Penalty>
  3.5872

> <r_epik_Ionization_Penalty_Charging>
  0.0001

> <r_epik_Ionization_Penalty_Neutral>
  3.5871

> <r_epik_State_Penalty>
  3.8485

> <r_epik_Charging_Adjusted_Penalty>
3.8486132815091

> <i_epik_Tot_Q>
-2

> <i_epik_Tot_abs_Q>
2

$$$$
PLP
                    3D
 Structure written by MMmdl.
 24 24  0  0  1  0            999 V2000
  -14.3330   14.0520   -8.3860 N   0  0  0  0  0  0
  -13.0670   14.1640   -7.9320 C   0  0  0  0  0  0
  -12.5230   15.5540   -7.6740 C   0  0  0  0  0  0
  -12.3130   12.9900   -7.7180 C   0  0  0  0  0  0
  -11.0530   13.1590   -7.2400 O   0  5  0  0  0  0
  -12.8690   11.7450   -7.9410 C   0  0  0  0  0  0
  -12.0000   10.5750   -8.1130 C   0  0  0  0  0  0
  -10.8480   10.7480   -8.7890 O   0  0  0  0  0  0
  -14.2050   11.7230   -8.4280 C   0  0  0  0  0  0
  -14.9090   12.8520   -8.6360 C   0  0  0  0  0  0
  -14.8540   10.3400   -8.6840 C   0  0  0  0  0  0
  -14.9550    9.6800   -7.4040 O   0  0  0  0  0  0
  -15.9170    8.4130   -7.1770 P   0  0  0  0  0  0
  -15.4670    7.4080   -8.2390 O   0  0  0  0  0  0
  -15.6850    7.9810   -5.7620 O   0  5  0  0  0  0
  -17.2790    8.8940   -7.4180 O   0  0  0  0  0  0
  -13.2947   16.3002   -7.9141 H   0  0  0  0  0  0
  -11.6387   15.7247   -8.3056 H   0  0  0  0  0  0
  -12.2405   15.6464   -6.6149 H   0  0  0  0  0  0
  -12.2596    9.5836   -7.7132 H   0  0  0  0  0  0
  -15.9460   12.7940   -9.0070 H   0  0  0  0  0  0
  -15.8498   10.4792   -9.1300 H   0  0  0  0  0  0
  -14.2218    9.7600   -9.3724 H   0  0  0  0  0  0
  -17.5709    9.2394   -8.4207 H   0  0  0  0  0  0
  1  2  2  0  0  0
  1 10  1  0  0  0
  2  3  1  0  0  0
  2  4  1  0  0  0
  3 17  1  0  0  0
  3 18  1  0  0  0
  3 19  1  0  0  0
  4  5  1  0  0  0
  4  6  2  0  0  0
  6  7  1  0  0  0
  6  9  1  0  0  0
  7  8  2  0  0  0
  7 20  1  0  0  0
  9 10  2  0  0  0
  9 11  1  0  0  0
 10 21  1  0  0  0
 11 12  1  0  0  0
 11 22  1  0  0  0
 11 23  1  0  0  0
 12 13  1  0  0  0
 13 14  2  0  0  0
 13 15  1  0  0  0
 13 16  1  0  0  0
 16 24  1  0  0  0
M  CHG  2   5  -1  15  -1
M  END
> <s_m_source_file>
/cbio/jclab/home/rustenburg/PFK/Epik-Ligands/Results/InProgress/PYRIDOXAL-5'-PHOSPHATE/pH_10.0/PYRIDOXAL-5'-PHOSPHATE_pH_10.0-before_epik.mol2

> <i_m_source_file_index>
1

> <r_epik_Ionization_Penalty>
  5.0975

> <r_epik_Ionization_Penalty_Charging>
  0.0012

> <r_epik_Ionization_Penalty_Neutral>
  5.0963

> <r_epik_State_Penalty>
  5.4385

> <r_epik_Charging_Adjusted_Penalty>
5.43970789614721

> <i_epik_Tot_Q>
-2

> <i_epik_Tot_abs_Q>
2

$$$$
