TLA
  CCTOOLS-0326171105

 16 15  0  0  1  0  0  0  0  0999 V2000
   33.8570   44.6120   63.5440 O   0  0  0  0  0
   33.7530   45.2180   65.6970 O   0  0  0  0  0
   33.4540   45.3610   64.4610 C   0  0  0  0  0
   32.5220   46.5590   64.2260 C   0  0  0  0  0
   31.9470   46.8880   65.5030 O   0  0  0  0  0
   31.4590   46.1860   63.1870 C   0  0  0  0  0
   30.6160   45.1510   63.6960 O   0  0  0  0  0
   30.5240   47.3480   62.8510 C   0  0  0  0  0
   29.3690   47.2240   63.3130 O   0  0  0  0  0
   30.8960   48.3610   62.1450 O   0  0  0  0  0
   33.4460   45.7860   66.3930 H   0  0  0  0  0
   33.1180   47.4250   63.8530 H   0  0  0  0  0
   31.3710   47.6290   65.3580 H   0  0  0  0  0
   31.9590   45.8320   62.2560 H   0  0  0  0  0
   29.9570   44.9200   63.0520 H   0  0  0  0  0
   30.3150   49.0830   61.9360 H   0  0  0  0  0
  1  3  2  0  0  0
  2  3  1  0  0  0
  2 11  1  0  0  0
  3  4  1  0  0  0
  4  5  1  0  0  0
  4  6  1  0  0  0
  4 12  1  0  0  0
  5 13  1  0  0  0
  6  7  1  0  0  0
  6  8  1  0  0  0
  6 14  1  0  0  0
  7 15  1  0  0  0
  8  9  2  0  0  0
  8 10  1  0  0  0
 10 16  1  0  0  0
M  END
$$$$
