@<TRIPOS>MOLECULE
GSH
36   35    1
SMALL
USER_CHARGES


@<TRIPOS>ATOM
      1 N1         29.4280   55.6180   21.0350 N.4       1 GSH         0.0000 
      2 CA1        30.8570   55.3600   20.8190 C.3       1 GSH         0.0000 
      3 C1         31.1720   53.8470   20.7060 C.2       1 GSH         0.0000 
      4 O11        32.1690   53.4940   20.0680 O.co2     1 GSH         0.0000 
      5 O12        30.3380   53.0180   21.3090 O.co2     1 GSH         0.0000 
      6 CB1        31.6820   56.0170   21.9480 C.3       1 GSH         0.0000 
      7 CG1        33.1680   56.2360   21.5350 C.3       1 GSH         0.0000 
      8 CD1        33.9430   56.7830   22.7670 C.2       1 GSH         0.0000 
      9 OE1        33.3750   57.4490   23.6470 O.2       1 GSH         0.0000 
     10 N2         35.2490   56.4840   22.7930 N.am      1 GSH         0.0000 
     11 CA2        36.1160   57.1670   23.7590 C.3       1 GSH         0.0000 
     12 C2         37.3460   57.7140   23.0170 C.2       1 GSH         0.0000 
     13 O2         38.4710   57.7550   23.5310 O.2       1 GSH         0.0000 
     14 CB2        36.6120   56.1590   24.8260 C.3       1 GSH         0.0000 
     15 SG2        35.2670   55.4640   25.8370 S.3       1 GSH         0.0000 
     16 N3         37.1200   58.1640   21.7610 N.am      1 GSH         0.0000 
     17 CA3        38.1830   58.6980   20.8980 C.3       1 GSH         0.0000 
     18 C3         37.9070   60.1660   20.6210 C.2       1 GSH         0.0000 
     19 O31        38.5800   60.6930   19.7190 O.co2     1 GSH         0.0000 
     20 O32        37.0370   60.7560   21.3120 O.co2     1 GSH         0.0000 
     21 HN11       28.8448   55.1486   20.2291 H         1 GSH         0.0000 
     22 HN12       29.2471   56.7030   21.0344 H         1 GSH         0.0000 
     23 HA1        31.0841   55.8300   19.8507 H         1 GSH         0.0000 
     24 HB12       31.2475   56.9963   22.1974 H         1 GSH         0.0000 
     25 HB13       31.6651   55.3709   22.8381 H         1 GSH         0.0000 
     26 HG12       33.6032   55.2793   21.2106 H         1 GSH         0.0000 
     27 HG13       33.2159   56.9598   20.7080 H         1 GSH         0.0000 
     28 HN2        35.6733   55.7388   22.1040 H         1 GSH         0.0000 
     29 HA2        35.5132   57.9697   24.2088 H         1 GSH         0.0000 
     30 HB22       37.1213   55.3201   24.3291 H         1 GSH         0.0000 
     31 HB23       37.3137   56.6621   25.5076 H         1 GSH         0.0000 
     32 HSG        35.4945   54.7357   26.6293 H         1 GSH         0.0000 
     33 HN3        36.0844   58.1170   21.3930 H         1 GSH         0.0000 
     34 HA31       39.1538   58.5929   21.4044 H         1 GSH         0.0000 
     35 HA32       38.2013   58.1395   19.9505 H         1 GSH         0.0000 
     36 H36        29.1215   55.1957   22.0034 H         1 GSH         0.0000 
@<TRIPOS>BOND
     1    1    2 1    
     2    1   21 1    
     3    1   22 1    
     4    1   36 1    
     5    2    3 1    
     6    2    6 1    
     7    2   23 1    
     8    3    4 2    
     9    3    5 1    
    10    6    7 1    
    11    6   24 1    
    12    6   25 1    
    13    7    8 1    
    14    7   26 1    
    15    7   27 1    
    16    8    9 2    
    17    8   10 am   BACKBONE|DICT|INTERRES
    18   10   11 1    
    19   10   28 1    
    20   11   12 1    
    21   11   14 1    
    22   11   29 1    
    23   12   13 2    
    24   12   16 am   BACKBONE|DICT|INTERRES
    25   14   15 1    
    26   14   30 1    
    27   14   31 1    
    28   15   32 1    
    29   16   17 1    
    30   16   33 1    
    31   17   18 1    
    32   17   34 1    
    33   17   35 1    
    34   18   19 2    
    35   18   20 1    
@<TRIPOS>SUBSTRUCTURE
     1 GSH         1 GROUP             0       ****    0 ROOT    
@<TRIPOS>MOLECULE
GSH
35   34    1
SMALL
USER_CHARGES


@<TRIPOS>ATOM
      1 N1         29.4280   55.6180   21.0350 N.4       1 GSH         0.0000 
      2 CA1        30.8570   55.3600   20.8190 C.3       1 GSH         0.0000 
      3 C1         31.1720   53.8470   20.7060 C.2       1 GSH         0.0000 
      4 O11        32.1690   53.4940   20.0680 O.co2     1 GSH         0.0000 
      5 O12        30.3380   53.0180   21.3090 O.co2     1 GSH         0.0000 
      6 CB1        31.6820   56.0170   21.9480 C.3       1 GSH         0.0000 
      7 CG1        33.1680   56.2360   21.5350 C.3       1 GSH         0.0000 
      8 CD1        33.9430   56.7830   22.7670 C.2       1 GSH         0.0000 
      9 OE1        33.3750   57.4490   23.6470 O.2       1 GSH         0.0000 
     10 N2         35.2490   56.4840   22.7930 N.am      1 GSH         0.0000 
     11 CA2        36.1160   57.1670   23.7590 C.3       1 GSH         0.0000 
     12 C2         37.3460   57.7140   23.0170 C.2       1 GSH         0.0000 
     13 O2         38.4710   57.7550   23.5310 O.2       1 GSH         0.0000 
     14 CB2        36.6120   56.1590   24.8260 C.3       1 GSH         0.0000 
     15 SG2        35.2670   55.4640   25.8370 S.3       1 GSH         0.0000 
     16 N3         37.1200   58.1640   21.7610 N.am      1 GSH         0.0000 
     17 CA3        38.1830   58.6980   20.8980 C.3       1 GSH         0.0000 
     18 C3         37.9070   60.1660   20.6210 C.2       1 GSH         0.0000 
     19 O31        38.5800   60.6930   19.7190 O.co2     1 GSH         0.0000 
     20 O32        37.0370   60.7560   21.3120 O.co2     1 GSH         0.0000 
     21 HN11       28.8448   55.1486   20.2291 H         1 GSH         0.0000 
     22 HN12       29.2471   56.7030   21.0344 H         1 GSH         0.0000 
     23 HA1        31.0841   55.8300   19.8507 H         1 GSH         0.0000 
     24 HB12       31.2475   56.9963   22.1974 H         1 GSH         0.0000 
     25 HB13       31.6651   55.3709   22.8381 H         1 GSH         0.0000 
     26 HG12       33.6032   55.2793   21.2106 H         1 GSH         0.0000 
     27 HG13       33.2159   56.9598   20.7080 H         1 GSH         0.0000 
     28 HN2        35.6733   55.7388   22.1040 H         1 GSH         0.0000 
     29 HA2        35.5132   57.9697   24.2088 H         1 GSH         0.0000 
     30 HB22       37.1213   55.3201   24.3291 H         1 GSH         0.0000 
     31 HB23       37.3137   56.6621   25.5076 H         1 GSH         0.0000 
     32 HN3        36.0844   58.1170   21.3930 H         1 GSH         0.0000 
     33 HA31       39.1538   58.5929   21.4044 H         1 GSH         0.0000 
     34 HA32       38.2013   58.1395   19.9505 H         1 GSH         0.0000 
     35 H35        29.1215   55.1957   22.0034 H         1 GSH         0.0000 
@<TRIPOS>BOND
     1    1    2 1    
     2    1   21 1    
     3    1   22 1    
     4    1   35 1    
     5    2    3 1    
     6    2    6 1    
     7    2   23 1    
     8    3    4 2    
     9    3    5 1    
    10    6    7 1    
    11    6   24 1    
    12    6   25 1    
    13    7    8 1    
    14    7   26 1    
    15    7   27 1    
    16    8    9 2    
    17    8   10 am   BACKBONE|DICT|INTERRES
    18   10   11 1    
    19   10   28 1    
    20   11   12 1    
    21   11   14 1    
    22   11   29 1    
    23   12   13 2    
    24   12   16 am   BACKBONE|DICT|INTERRES
    25   14   15 1    
    26   14   30 1    
    27   14   31 1    
    28   16   17 1    
    29   16   32 1    
    30   17   18 1    
    31   17   33 1    
    32   17   34 1    
    33   18   19 2    
    34   18   20 1    
@<TRIPOS>SUBSTRUCTURE
     1 GSH         1 GROUP             0       ****    0 ROOT    
@<TRIPOS>MOLECULE
GSH
35   34    1
SMALL
USER_CHARGES


@<TRIPOS>ATOM
      1 N1         29.4280   55.6180   21.0350 N.3       1 GSH         0.0000 
      2 CA1        30.8570   55.3600   20.8190 C.3       1 GSH         0.0000 
      3 C1         31.1720   53.8470   20.7060 C.2       1 GSH         0.0000 
      4 O11        32.1690   53.4940   20.0680 O.co2     1 GSH         0.0000 
      5 O12        30.3380   53.0180   21.3090 O.co2     1 GSH         0.0000 
      6 CB1        31.6820   56.0170   21.9480 C.3       1 GSH         0.0000 
      7 CG1        33.1680   56.2360   21.5350 C.3       1 GSH         0.0000 
      8 CD1        33.9430   56.7830   22.7670 C.2       1 GSH         0.0000 
      9 OE1        33.3750   57.4490   23.6470 O.2       1 GSH         0.0000 
     10 N2         35.2490   56.4840   22.7930 N.am      1 GSH         0.0000 
     11 CA2        36.1160   57.1670   23.7590 C.3       1 GSH         0.0000 
     12 C2         37.3460   57.7140   23.0170 C.2       1 GSH         0.0000 
     13 O2         38.4710   57.7550   23.5310 O.2       1 GSH         0.0000 
     14 CB2        36.6120   56.1590   24.8260 C.3       1 GSH         0.0000 
     15 SG2        35.2670   55.4640   25.8370 S.3       1 GSH         0.0000 
     16 N3         37.1200   58.1640   21.7610 N.am      1 GSH         0.0000 
     17 CA3        38.1830   58.6980   20.8980 C.3       1 GSH         0.0000 
     18 C3         37.9070   60.1660   20.6210 C.2       1 GSH         0.0000 
     19 O31        38.5800   60.6930   19.7190 O.co2     1 GSH         0.0000 
     20 O32        37.0370   60.7560   21.3120 O.co2     1 GSH         0.0000 
     21 HN11       29.1163   55.1760   21.9928 H         1 GSH         0.0000 
     22 HN12       29.2506   56.7034   21.0570 H         1 GSH         0.0000 
     23 HA1        31.0841   55.8300   19.8507 H         1 GSH         0.0000 
     24 HB12       31.2475   56.9963   22.1974 H         1 GSH         0.0000 
     25 HB13       31.6651   55.3709   22.8381 H         1 GSH         0.0000 
     26 HG12       33.6032   55.2793   21.2106 H         1 GSH         0.0000 
     27 HG13       33.2159   56.9598   20.7080 H         1 GSH         0.0000 
     28 HN2        35.6733   55.7388   22.1040 H         1 GSH         0.0000 
     29 HA2        35.5132   57.9697   24.2088 H         1 GSH         0.0000 
     30 HB22       37.1213   55.3201   24.3291 H         1 GSH         0.0000 
     31 HB23       37.3137   56.6621   25.5076 H         1 GSH         0.0000 
     32 HSG        35.4945   54.7357   26.6293 H         1 GSH         0.0000 
     33 HN3        36.0844   58.1170   21.3930 H         1 GSH         0.0000 
     34 HA31       39.1538   58.5929   21.4044 H         1 GSH         0.0000 
     35 HA32       38.2013   58.1395   19.9505 H         1 GSH         0.0000 
@<TRIPOS>BOND
     1    1    2 1    
     2    1   21 1    
     3    1   22 1    
     4    2    3 1    
     5    2    6 1    
     6    2   23 1    
     7    3    4 2    
     8    3    5 1    
     9    6    7 1    
    10    6   24 1    
    11    6   25 1    
    12    7    8 1    
    13    7   26 1    
    14    7   27 1    
    15    8    9 2    
    16    8   10 am   BACKBONE|DICT|INTERRES
    17   10   11 1    
    18   10   28 1    
    19   11   12 1    
    20   11   14 1    
    21   11   29 1    
    22   12   13 2    
    23   12   16 am   BACKBONE|DICT|INTERRES
    24   14   15 1    
    25   14   30 1    
    26   14   31 1    
    27   15   32 1    
    28   16   17 1    
    29   16   33 1    
    30   17   18 1    
    31   17   34 1    
    32   17   35 1    
    33   18   19 2    
    34   18   20 1    
@<TRIPOS>SUBSTRUCTURE
     1 GSH         1 GROUP             0       ****    0 ROOT    
@<TRIPOS>MOLECULE
GSH
37   36    1
SMALL
USER_CHARGES


@<TRIPOS>ATOM
      1 N1         29.4280   55.6180   21.0350 N.4       1 GSH         0.0000 
      2 CA1        30.8570   55.3600   20.8190 C.3       1 GSH         0.0000 
      3 C1         31.1720   53.8470   20.7060 C.2       1 GSH         0.0000 
      4 O11        32.1690   53.4940   20.0680 O.co2     1 GSH         0.0000 
      5 O12        30.3380   53.0180   21.3090 O.co2     1 GSH         0.0000 
      6 CB1        31.6820   56.0170   21.9480 C.3       1 GSH         0.0000 
      7 CG1        33.1680   56.2360   21.5350 C.3       1 GSH         0.0000 
      8 CD1        33.9430   56.7830   22.7670 C.2       1 GSH         0.0000 
      9 OE1        33.3750   57.4490   23.6470 O.2       1 GSH         0.0000 
     10 N2         35.2490   56.4840   22.7930 N.am      1 GSH         0.0000 
     11 CA2        36.1160   57.1670   23.7590 C.3       1 GSH         0.0000 
     12 C2         37.3460   57.7140   23.0170 C.2       1 GSH         0.0000 
     13 O2         38.4710   57.7550   23.5310 O.2       1 GSH         0.0000 
     14 CB2        36.6120   56.1590   24.8260 C.3       1 GSH         0.0000 
     15 SG2        35.2670   55.4640   25.8370 S.3       1 GSH         0.0000 
     16 N3         37.1200   58.1640   21.7610 N.am      1 GSH         0.0000 
     17 CA3        38.1830   58.6980   20.8980 C.3       1 GSH         0.0000 
     18 C3         37.9070   60.1660   20.6210 C.2       1 GSH         0.0000 
     19 O31        38.5800   60.6930   19.7190 O.2       1 GSH         0.0000 
     20 O32        37.0370   60.7560   21.3120 O.3       1 GSH         0.0000 
     21 HN11       28.8448   55.1486   20.2291 H         1 GSH         0.0000 
     22 HN12       29.2471   56.7030   21.0344 H         1 GSH         0.0000 
     23 HA1        31.0841   55.8300   19.8507 H         1 GSH         0.0000 
     24 HB12       31.2475   56.9963   22.1974 H         1 GSH         0.0000 
     25 HB13       31.6651   55.3709   22.8381 H         1 GSH         0.0000 
     26 HG12       33.6032   55.2793   21.2106 H         1 GSH         0.0000 
     27 HG13       33.2159   56.9598   20.7080 H         1 GSH         0.0000 
     28 HN2        35.6733   55.7388   22.1040 H         1 GSH         0.0000 
     29 HA2        35.5132   57.9697   24.2088 H         1 GSH         0.0000 
     30 HB22       37.1213   55.3201   24.3291 H         1 GSH         0.0000 
     31 HB23       37.3137   56.6621   25.5076 H         1 GSH         0.0000 
     32 HSG        35.4945   54.7357   26.6293 H         1 GSH         0.0000 
     33 HN3        36.0844   58.1170   21.3930 H         1 GSH         0.0000 
     34 HA31       39.1538   58.5929   21.4044 H         1 GSH         0.0000 
     35 HA32       38.2013   58.1395   19.9505 H         1 GSH         0.0000 
     36 H32        36.4886   60.2070   22.0917 H         1 GSH         0.0000 
     37 H37        29.1215   55.1957   22.0034 H         1 GSH         0.0000 
@<TRIPOS>BOND
     1    1    2 1    
     2    1   21 1    
     3    1   22 1    
     4    1   37 1    
     5    2    3 1    
     6    2    6 1    
     7    2   23 1    
     8    3    4 2    
     9    3    5 1    
    10    6    7 1    
    11    6   24 1    
    12    6   25 1    
    13    7    8 1    
    14    7   26 1    
    15    7   27 1    
    16    8    9 2    
    17    8   10 am   BACKBONE|DICT|INTERRES
    18   10   11 1    
    19   10   28 1    
    20   11   12 1    
    21   11   14 1    
    22   11   29 1    
    23   12   13 2    
    24   12   16 am   BACKBONE|DICT|INTERRES
    25   14   15 1    
    26   14   30 1    
    27   14   31 1    
    28   15   32 1    
    29   16   17 1    
    30   16   33 1    
    31   17   18 1    
    32   17   34 1    
    33   17   35 1    
    34   18   19 2    
    35   18   20 1    
    36   20   36 1    
@<TRIPOS>SUBSTRUCTURE
     1 GSH         1 GROUP             0       ****    0 ROOT    
