@<TRIPOS>MOLECULE
2-[2-(1-azaniumyl-2-hydroxy-propyl)-4-[(4-oxidophenyl)methylene]-5-oxo-imidazol-1-yl]acetate
   39    40     1     0     0
SMALL
USER_CHARGES

@<TRIPOS>ATOM
      1 N1          1.0222    1.7804    0.7805 N.4       1 CRO        -0.8501
      2 CA1         0.5732    0.4928    0.1805 C.3       1 CRO         0.1681
      3 CB1         0.5296    0.6414   -1.3421 C.3       1 CRO         0.1331
      4 CG1        -0.4184    1.7498   -1.7869 C.3       1 CRO        -0.1293
      5 OG1         1.8350    0.9175   -1.8455 O.3       1 CRO        -0.6634
      6 C1          1.4892   -0.5940    0.6489 C.2       1 CRO         0.1622
      7 N2          2.7381   -0.3909    0.9403 N.2       1 CRO        -0.4972
      8 N3          1.0483   -1.8657    0.7922 N.am      1 CRO        -0.3804
      9 C2          2.1014   -2.6269    1.2300 C.2       1 CRO         0.7015
     10 O2          2.1723   -3.8122    1.4926 O.2       1 CRO        -0.6009
     11 CA2         3.1974   -1.6295    1.3176 C.2       1 CRO        -0.1806
     12 CA3        -0.2897   -2.3685    0.5385 C.3       1 CRO        -0.0518
     13 C3         -1.0316   -2.2244    1.8525 C.2       1 CRO         0.9408
     14 O3         -2.0434   -1.4684    1.8183 O.2       1 CRO        -0.8065
     15 CB2         4.4344   -1.9362    1.7110 C.2       1 CRO         0.1361
     16 CG2         5.5079   -0.9931    1.8392 C.ar      1 CRO        -0.2678
     17 CD1         6.6711   -1.1539    1.0863 C.ar      1 CRO        -0.0100
     18 CD2         5.3884    0.0844    2.7167 C.ar      1 CRO        -0.0100
     19 CE1         7.7148   -0.2369    1.2109 C.ar      1 CRO        -0.3077
     20 CE2         6.4321    1.0014    2.8414 C.ar      1 CRO        -0.3077
     21 CZ          7.5953    0.8408    2.0885 C.ar      1 CRO         0.5737
     22 OH          8.5539    1.6830    2.2030 O.co2     1 CRO        -0.6974
     23 OXT        -0.5334   -2.8619    2.8230 Du        1 CRO        -0.8065
     24 HN11        1.5329    1.6264    1.6599 H         1 CRO         0.4473
     25 H2          0.2239    2.3944    0.9898 H         1 CRO         0.4473
     26 HA1        -0.4279    0.3043    0.5820 H         1 CRO         0.1145
     27 HB1         0.1995   -0.3040   -1.7898 H         1 CRO         0.0920
     28 HG11       -0.4378    1.8428   -2.8771 H         1 CRO         0.0647
     29 HG12       -0.1043    2.7102   -1.3635 H         1 CRO         0.0647
     30 HG13       -1.4378    1.5723   -1.4278 H         1 CRO         0.0647
     31 HOG1        1.7471    1.0010   -2.8074 H         1 CRO         0.4289
     32 HA31       -0.7588   -1.7823   -0.2514 H         1 CRO        -0.0059
     33 HA32       -0.2377   -3.4103    0.2231 H         1 CRO        -0.0059
     34 HB2         4.6518   -2.9830    1.9249 H         1 CRO         0.1337
     35 HD1         6.7789   -1.9886    0.3978 H         1 CRO         0.1102
     36 HD2         4.4879    0.2223    3.3105 H         1 CRO         0.1102
     37 HE1         8.6120   -0.3856    0.6122 H         1 CRO         0.1190
     38 HE2         6.3131    1.8339    3.5331 H         1 CRO         0.1190
     39 H39         1.6481    2.2922    0.1447 H         1 CRO         0.4473
@<TRIPOS>BOND
     1    1    2 1
     2    1   24 1
     3    1   25 1
     4    1   39 1
     5    2    6 1
     6    2   26 1
     7    2    3 1
     8    3   27 1
     9    3    4 1
    10    3    5 1
    11    4   28 1
    12    4   29 1
    13    4   30 1
    14    5   31 1
    15    6    8 1
    16    6    7 2
    17    7   11 1
    18    8   12 1
    19    8    9 am
    20    9   10 2
    21    9   11 1
    22   11   15 2
    23   12   13 1
    24   12   32 1
    25   12   33 1
    26   13   14 2
    27   13   23 1
    28   15   34 1
    29   15   16 1
    30   16   18 ar
    31   16   17 ar
    32   17   35 1
    33   17   19 ar
    34   18   36 1
    35   18   20 ar
    36   19   21 ar
    37   19   37 1
    38   20   38 1
    39   20   21 ar
    40   21   22 1
@<TRIPOS>SUBSTRUCTURE
     1 CRO         1 GROUP 0 A     ****
@<TRIPOS>MOLECULE
2-[2-(1-azaniumyl-2-hydroxy-propyl)-4-[(4-oxidophenyl)methylene]-5-oxo-imidazol-1-yl]acetate
   39    40     1     0     0
SMALL
USER_CHARGES

@<TRIPOS>ATOM
      1 N1         -0.0732    1.1118    1.3716 N.4       1 CRO        -0.8501
      2 CA1         0.5732    0.4928    0.1805 C.3       1 CRO         0.1681
      3 CB1         1.2817    1.5843   -0.6251 C.3       1 CRO         0.1331
      4 CG1         0.3134    2.3828   -1.4912 C.3       1 CRO        -0.1293
      5 OG1         1.9635    2.4775    0.2530 O.3       1 CRO        -0.6634
      6 C1          1.4892   -0.5940    0.6489 C.2       1 CRO         0.1622
      7 N2          2.7381   -0.3909    0.9403 N.2       1 CRO        -0.4972
      8 N3          1.0483   -1.8657    0.7922 N.am      1 CRO        -0.3804
      9 C2          2.1014   -2.6269    1.2300 C.2       1 CRO         0.7015
     10 O2          2.1723   -3.8122    1.4926 O.2       1 CRO        -0.6009
     11 CA2         3.1974   -1.6295    1.3176 C.2       1 CRO        -0.1806
     12 CA3        -0.2897   -2.3685    0.5385 C.3       1 CRO        -0.0518
     13 C3         -0.2930   -2.7926   -0.9169 C.2       1 CRO         0.9408
     14 O3         -1.1462   -2.2103   -1.6444 O.2       1 CRO        -0.8065
     15 CB2         4.4344   -1.9362    1.7110 C.2       1 CRO         0.1361
     16 CG2         5.5079   -0.9931    1.8392 C.ar      1 CRO        -0.2678
     17 CD1         6.6711   -1.1539    1.0863 C.ar      1 CRO        -0.0100
     18 CD2         5.3884    0.0844    2.7167 C.ar      1 CRO        -0.0100
     19 CE1         7.7148   -0.2369    1.2109 C.ar      1 CRO        -0.3077
     20 CE2         6.4321    1.0014    2.8414 C.ar      1 CRO        -0.3077
     21 CZ          7.5953    0.8408    2.0885 C.ar      1 CRO         0.5737
     22 OH          8.5539    1.6830    2.2030 O.co2     1 CRO        -0.6974
     23 OXT         0.5440   -3.6906   -1.2162 Du        1 CRO        -0.8065
     24 HN11       -0.1151    0.4530    2.1602 H         1 CRO         0.4473
     25 H2         -1.0364    1.4070    1.1636 H         1 CRO         0.4473
     26 HA1        -0.2360    0.0415   -0.4031 H         1 CRO         0.1145
     27 HB1         2.0364    1.1242   -1.2744 H         1 CRO         0.0920
     28 HG11        0.8355    3.1583   -2.0600 H         1 CRO         0.0647
     29 HG12       -0.4460    2.8649   -0.8657 H         1 CRO         0.0647
     30 HG13       -0.2271    1.7342   -2.1889 H         1 CRO         0.0647
     31 HOG1        2.6066    1.9434    0.7441 H         1 CRO         0.4289
     32 HA31       -0.4978   -3.2091    1.2000 H         1 CRO        -0.0059
     33 HA32       -1.0201   -1.5815    0.7252 H         1 CRO        -0.0059
     34 HB2         4.6518   -2.9830    1.9249 H         1 CRO         0.1337
     35 HD1         6.7789   -1.9886    0.3978 H         1 CRO         0.1102
     36 HD2         4.4879    0.2223    3.3105 H         1 CRO         0.1102
     37 HE1         8.6120   -0.3856    0.6122 H         1 CRO         0.1190
     38 HE2         6.3131    1.8339    3.5331 H         1 CRO         0.1190
     39 H39         0.4434    1.9425    1.6892 H         1 CRO         0.4473
@<TRIPOS>BOND
     1    1    2 1
     2    1   24 1
     3    1   25 1
     4    1   39 1
     5    2    6 1
     6    2   26 1
     7    2    3 1
     8    3   27 1
     9    3    4 1
    10    3    5 1
    11    4   28 1
    12    4   29 1
    13    4   30 1
    14    5   31 1
    15    6    8 1
    16    6    7 2
    17    7   11 1
    18    8   12 1
    19    8    9 am
    20    9   10 2
    21    9   11 1
    22   11   15 2
    23   12   13 1
    24   12   32 1
    25   12   33 1
    26   13   14 2
    27   13   23 1
    28   15   34 1
    29   15   16 1
    30   16   18 ar
    31   16   17 ar
    32   17   35 1
    33   17   19 ar
    34   18   36 1
    35   18   20 ar
    36   19   21 ar
    37   19   37 1
    38   20   38 1
    39   20   21 ar
    40   21   22 1
@<TRIPOS>SUBSTRUCTURE
     1 CRO         1 GROUP 0 A     ****
@<TRIPOS>MOLECULE
2-[2-(1-azaniumyl-2-hydroxy-propyl)-4-[(4-oxidophenyl)methylene]-5-oxo-imidazol-1-yl]acetate
   39    40     1     0     0
SMALL
USER_CHARGES

@<TRIPOS>ATOM
      1 N1         -0.0732    1.1118    1.3716 N.4       1 CRO        -0.8501
      2 CA1         0.5732    0.4928    0.1805 C.3       1 CRO         0.1681
      3 CB1         1.2817    1.5843   -0.6251 C.3       1 CRO         0.1331
      4 CG1         1.9578    1.0321   -1.8753 C.3       1 CRO        -0.1293
      5 OG1         0.3500    2.5935   -1.0088 O.3       1 CRO        -0.6634
      6 C1          1.4892   -0.5940    0.6489 C.2       1 CRO         0.1622
      7 N2          2.7381   -0.3909    0.9403 N.2       1 CRO        -0.4972
      8 N3          1.0483   -1.8657    0.7922 N.am      1 CRO        -0.3804
      9 C2          2.1014   -2.6269    1.2300 C.2       1 CRO         0.7015
     10 O2          2.1723   -3.8122    1.4926 O.2       1 CRO        -0.6009
     11 CA2         3.1974   -1.6295    1.3176 C.2       1 CRO        -0.1806
     12 CA3        -0.2897   -2.3685    0.5385 C.3       1 CRO        -0.0518
     13 C3         -0.2930   -2.7926   -0.9169 C.2       1 CRO         0.9408
     14 O3         -1.1462   -2.2103   -1.6444 O.2       1 CRO        -0.8065
     15 CB2         4.4344   -1.9362    1.7110 C.2       1 CRO         0.1361
     16 CG2         5.5079   -0.9931    1.8392 C.ar      1 CRO        -0.2678
     17 CD1         6.1253   -0.8028    3.0754 C.ar      1 CRO        -0.0100
     18 CD2         5.9341   -0.2664    0.7275 C.ar      1 CRO        -0.0100
     19 CE1         7.1690    0.1141    3.1999 C.ar      1 CRO        -0.3077
     20 CE2         6.9778    0.6505    0.8520 C.ar      1 CRO        -0.3077
     21 CZ          7.5953    0.8408    2.0882 C.ar      1 CRO         0.5737
     22 OH          8.5539    1.6831    2.2026 O.co2     1 CRO        -0.6974
     23 OXT         0.5440   -3.6906   -1.2162 Du        1 CRO        -0.8065
     24 HN11       -0.1151    0.4530    2.1602 H         1 CRO         0.4473
     25 H2         -1.0364    1.4070    1.1636 H         1 CRO         0.4473
     26 HA1        -0.2360    0.0415   -0.4031 H         1 CRO         0.1145
     27 HB1         2.0424    2.0633    0.0034 H         1 CRO         0.0920
     28 HG11        2.4591    1.8246   -2.4392 H         1 CRO         0.0647
     29 HG12        1.2174    0.5578   -2.5289 H         1 CRO         0.0647
     30 HG13        2.6902    0.2572   -1.6247 H         1 CRO         0.0647
     31 HOG1       -0.3250    2.1543   -1.5485 H         1 CRO         0.4289
     32 HA31       -0.4978   -3.2091    1.2000 H         1 CRO        -0.0059
     33 HA32       -1.0201   -1.5815    0.7252 H         1 CRO        -0.0059
     34 HB2         4.6518   -2.9830    1.9249 H         1 CRO         0.1337
     35 HD1         5.8044   -1.3622    3.9510 H         1 CRO         0.1102
     36 HD2         5.4619   -0.4037   -0.2424 H         1 CRO         0.1102
     37 HE1         7.6335    0.2439    4.1761 H         1 CRO         0.1190
     38 HE2         7.2915    1.2045   -0.0314 H         1 CRO         0.1190
     39 H39         0.4434    1.9425    1.6892 H         1 CRO         0.4473
@<TRIPOS>BOND
     1    1    2 1
     2    1   24 1
     3    1   25 1
     4    1   39 1
     5    2    6 1
     6    2   26 1
     7    2    3 1
     8    3   27 1
     9    3    4 1
    10    3    5 1
    11    4   28 1
    12    4   29 1
    13    4   30 1
    14    5   31 1
    15    6    8 1
    16    6    7 2
    17    7   11 1
    18    8   12 1
    19    8    9 am
    20    9   10 2
    21    9   11 1
    22   11   15 2
    23   12   13 1
    24   12   32 1
    25   12   33 1
    26   13   14 2
    27   13   23 1
    28   15   34 1
    29   15   16 1
    30   16   18 ar
    31   16   17 ar
    32   17   35 1
    33   17   19 ar
    34   18   36 1
    35   18   20 ar
    36   19   21 ar
    37   19   37 1
    38   20   38 1
    39   20   21 ar
    40   21   22 1
@<TRIPOS>SUBSTRUCTURE
     1 CRO         1 GROUP 0 A     ****
@<TRIPOS>MOLECULE
2-[2-(1-azaniumyl-2-hydroxy-propyl)-4-[(4-oxidophenyl)methylene]-5-oxo-imidazol-1-yl]acetate
   39    40     1     0     0
SMALL
USER_CHARGES

@<TRIPOS>ATOM
      1 N1          1.0222    1.7804    0.7805 N.4       1 CRO        -0.8501
      2 CA1         0.5732    0.4928    0.1805 C.3       1 CRO         0.1681
      3 CB1         0.5296    0.6414   -1.3421 C.3       1 CRO         0.1331
      4 CG1        -0.4184    1.7498   -1.7869 C.3       1 CRO        -0.1293
      5 OG1         1.8350    0.9175   -1.8455 O.3       1 CRO        -0.6634
      6 C1          1.4892   -0.5940    0.6489 C.2       1 CRO         0.1622
      7 N2          2.7381   -0.3909    0.9403 N.2       1 CRO        -0.4972
      8 N3          1.0483   -1.8657    0.7922 N.am      1 CRO        -0.3804
      9 C2          2.1014   -2.6269    1.2300 C.2       1 CRO         0.7015
     10 O2          2.1723   -3.8122    1.4926 O.2       1 CRO        -0.6009
     11 CA2         3.1974   -1.6295    1.3176 C.2       1 CRO        -0.1806
     12 CA3        -0.2897   -2.3685    0.5385 C.3       1 CRO        -0.0518
     13 C3         -0.1275   -3.4249   -0.5365 C.2       1 CRO         0.9408
     14 O3         -0.4870   -4.5896   -0.2039 O.2       1 CRO        -0.8065
     15 CB2         4.4344   -1.9362    1.7110 C.2       1 CRO         0.1361
     16 CG2         5.5079   -0.9931    1.8392 C.ar      1 CRO        -0.2678
     17 CD1         6.1253   -0.8028    3.0754 C.ar      1 CRO        -0.0100
     18 CD2         5.9341   -0.2664    0.7275 C.ar      1 CRO        -0.0100
     19 CE1         7.1690    0.1141    3.1999 C.ar      1 CRO        -0.3077
     20 CE2         6.9778    0.6505    0.8520 C.ar      1 CRO        -0.3077
     21 CZ          7.5953    0.8408    2.0882 C.ar      1 CRO         0.5737
     22 OH          8.5539    1.6831    2.2026 O.co2     1 CRO        -0.6974
     23 OXT         0.3666   -3.0128   -1.6239 Du        1 CRO        -0.8065
     24 HN11        1.5329    1.6264    1.6599 H         1 CRO         0.4473
     25 H2          0.2239    2.3944    0.9898 H         1 CRO         0.4473
     26 HA1        -0.4279    0.3043    0.5820 H         1 CRO         0.1145
     27 HB1         0.1995   -0.3040   -1.7898 H         1 CRO         0.0920
     28 HG11       -0.4378    1.8428   -2.8771 H         1 CRO         0.0647
     29 HG12       -0.1043    2.7102   -1.3635 H         1 CRO         0.0647
     30 HG13       -1.4378    1.5723   -1.4278 H         1 CRO         0.0647
     31 HOG1        2.3927    0.1663   -1.5913 H         1 CRO         0.4289
     32 HA31       -0.7033   -2.7905    1.4541 H         1 CRO        -0.0059
     33 HA32       -0.9313   -1.5542    0.2024 H         1 CRO        -0.0059
     34 HB2         4.6518   -2.9830    1.9249 H         1 CRO         0.1337
     35 HD1         5.8044   -1.3622    3.9510 H         1 CRO         0.1102
     36 HD2         5.4619   -0.4037   -0.2424 H         1 CRO         0.1102
     37 HE1         7.6335    0.2439    4.1761 H         1 CRO         0.1190
     38 HE2         7.2915    1.2045   -0.0314 H         1 CRO         0.1190
     39 H39         1.6481    2.2922    0.1447 H         1 CRO         0.4473
@<TRIPOS>BOND
     1    1    2 1
     2    1   24 1
     3    1   25 1
     4    1   39 1
     5    2    6 1
     6    2   26 1
     7    2    3 1
     8    3   27 1
     9    3    4 1
    10    3    5 1
    11    4   28 1
    12    4   29 1
    13    4   30 1
    14    5   31 1
    15    6    8 1
    16    6    7 2
    17    7   11 1
    18    8   12 1
    19    8    9 am
    20    9   10 2
    21    9   11 1
    22   11   15 2
    23   12   13 1
    24   12   32 1
    25   12   33 1
    26   13   14 2
    27   13   23 1
    28   15   34 1
    29   15   16 1
    30   16   18 ar
    31   16   17 ar
    32   17   35 1
    33   17   19 ar
    34   18   36 1
    35   18   20 ar
    36   19   21 ar
    37   19   37 1
    38   20   38 1
    39   20   21 ar
    40   21   22 1
@<TRIPOS>SUBSTRUCTURE
     1 CRO         1 GROUP 0 A     ****
@<TRIPOS>MOLECULE
2-[2-(1-azaniumyl-2-hydroxy-propyl)-4-[(4-oxidophenyl)methylene]-5-oxo-imidazol-1-yl]acetate
   39    40     1     0     0
SMALL
USER_CHARGES

@<TRIPOS>ATOM
      1 N1          0.5040    1.5405    1.2375 N.4       1 CRO        -0.8501
      2 CA1         0.5732    0.4928    0.1805 C.3       1 CRO         0.1681
      3 CB1         1.0149    1.1401   -1.1341 C.3       1 CRO         0.1331
      4 CG1         1.0949    0.1322   -2.2755 C.3       1 CRO        -0.1293
      5 OG1         0.1100    2.1810   -1.4967 O.3       1 CRO        -0.6634
      6 C1          1.4892   -0.5940    0.6489 C.2       1 CRO         0.1622
      7 N2          2.7381   -0.3909    0.9403 N.2       1 CRO        -0.4972
      8 N3          1.0483   -1.8657    0.7922 N.am      1 CRO        -0.3804
      9 C2          2.1014   -2.6269    1.2300 C.2       1 CRO         0.7015
     10 O2          2.1723   -3.8122    1.4926 O.2       1 CRO        -0.6009
     11 CA2         3.1974   -1.6295    1.3176 C.2       1 CRO        -0.1806
     12 CA3        -0.2897   -2.3685    0.5385 C.3       1 CRO        -0.0518
     13 C3         -1.0316   -2.2244    1.8525 C.2       1 CRO         0.9408
     14 O3         -1.4906   -3.2999    2.3312 O.2       1 CRO        -0.8065
     15 CB2         4.4344   -1.9362    1.7110 C.2       1 CRO         0.1361
     16 CG2         5.5079   -0.9931    1.8392 C.ar      1 CRO        -0.2678
     17 CD1         6.1253   -0.8028    3.0754 C.ar      1 CRO        -0.0100
     18 CD2         5.9341   -0.2664    0.7275 C.ar      1 CRO        -0.0100
     19 CE1         7.1690    0.1141    3.1999 C.ar      1 CRO        -0.3077
     20 CE2         6.9778    0.6505    0.8520 C.ar      1 CRO        -0.3077
     21 CZ          7.5953    0.8408    2.0882 C.ar      1 CRO         0.5737
     22 OH          8.5539    1.6831    2.2026 O.co2     1 CRO        -0.6974
     23 OXT        -1.1164   -1.0438    2.2945 Du        1 CRO        -0.8065
     24 HN11        0.7084    1.1498    2.1666 H         1 CRO         0.4473
     25 H2         -0.4307    1.9678    1.2803 H         1 CRO         0.4473
     26 HA1        -0.4388    0.0840    0.0923 H         1 CRO         0.1145
     27 HB1         2.0027    1.5976   -0.9995 H         1 CRO         0.0920
     28 HG11        1.4118    0.6108   -3.2072 H         1 CRO         0.0647
     29 HG12        0.1164   -0.3322   -2.4407 H         1 CRO         0.0647
     30 HG13        1.7882   -0.6828   -2.0416 H         1 CRO         0.0647
     31 HOG1       -0.7609    1.7666   -1.5955 H         1 CRO         0.4289
     32 HA31       -0.7588   -1.7823   -0.2514 H         1 CRO        -0.0059
     33 HA32       -0.2377   -3.4103    0.2231 H         1 CRO        -0.0059
     34 HB2         4.6518   -2.9830    1.9249 H         1 CRO         0.1337
     35 HD1         5.8044   -1.3622    3.9510 H         1 CRO         0.1102
     36 HD2         5.4619   -0.4037   -0.2424 H         1 CRO         0.1102
     37 HE1         7.6335    0.2439    4.1761 H         1 CRO         0.1190
     38 HE2         7.2915    1.2045   -0.0314 H         1 CRO         0.1190
     39 H39         1.1814    2.2945    1.0628 H         1 CRO         0.4473
@<TRIPOS>BOND
     1    1    2 1
     2    1   24 1
     3    1   25 1
     4    1   39 1
     5    2    6 1
     6    2   26 1
     7    2    3 1
     8    3   27 1
     9    3    4 1
    10    3    5 1
    11    4   28 1
    12    4   29 1
    13    4   30 1
    14    5   31 1
    15    6    8 1
    16    6    7 2
    17    7   11 1
    18    8   12 1
    19    8    9 am
    20    9   10 2
    21    9   11 1
    22   11   15 2
    23   12   13 1
    24   12   32 1
    25   12   33 1
    26   13   14 2
    27   13   23 1
    28   15   34 1
    29   15   16 1
    30   16   18 ar
    31   16   17 ar
    32   17   35 1
    33   17   19 ar
    34   18   36 1
    35   18   20 ar
    36   19   21 ar
    37   19   37 1
    38   20   38 1
    39   20   21 ar
    40   21   22 1
@<TRIPOS>SUBSTRUCTURE
     1 CRO         1 GROUP 0 A     ****
@<TRIPOS>MOLECULE
2-[2-(1-azaniumyl-2-hydroxy-propyl)-4-[(4-oxidophenyl)methylene]-5-oxo-imidazol-1-yl]acetate
   39    40     1     0     0
SMALL
USER_CHARGES

@<TRIPOS>ATOM
      1 N1         -0.0732    1.1118    1.3716 N.4       1 CRO        -0.8501
      2 CA1         0.5732    0.4928    0.1805 C.3       1 CRO         0.1681
      3 CB1         1.2817    1.5843   -0.6251 C.3       1 CRO         0.1331
      4 CG1         0.3134    2.3828   -1.4912 C.3       1 CRO        -0.1293
      5 OG1         1.9635    2.4775    0.2530 O.3       1 CRO        -0.6634
      6 C1          1.4892   -0.5940    0.6489 C.2       1 CRO         0.1622
      7 N2          2.7381   -0.3909    0.9403 N.2       1 CRO        -0.4972
      8 N3          1.0483   -1.8657    0.7922 N.am      1 CRO        -0.3804
      9 C2          2.1014   -2.6269    1.2300 C.2       1 CRO         0.7015
     10 O2          2.1723   -3.8122    1.4926 O.2       1 CRO        -0.6009
     11 CA2         3.1974   -1.6295    1.3176 C.2       1 CRO        -0.1806
     12 CA3        -0.2897   -2.3685    0.5385 C.3       1 CRO        -0.0518
     13 C3         -1.0316   -2.2244    1.8525 C.2       1 CRO         0.9408
     14 O3         -2.0434   -1.4684    1.8183 O.2       1 CRO        -0.8065
     15 CB2         4.4344   -1.9362    1.7110 C.2       1 CRO         0.1361
     16 CG2         5.5079   -0.9931    1.8392 C.ar      1 CRO        -0.2678
     17 CD1         6.5104   -1.2018    2.7864 C.ar      1 CRO        -0.0100
     18 CD2         5.5490    0.1326    1.0166 C.ar      1 CRO        -0.0100
     19 CE1         7.5540   -0.2849    2.9109 C.ar      1 CRO        -0.3077
     20 CE2         6.5927    1.0495    1.1411 C.ar      1 CRO        -0.3077
     21 CZ          7.5953    0.8408    2.0883 C.ar      1 CRO         0.5737
     22 OH          8.5538    1.6832    2.2027 O.co2     1 CRO        -0.6974
     23 OXT        -0.5334   -2.8619    2.8230 Du        1 CRO        -0.8065
     24 HN11       -0.1151    0.4530    2.1602 H         1 CRO         0.4473
     25 H2         -1.0364    1.4070    1.1636 H         1 CRO         0.4473
     26 HA1        -0.2360    0.0415   -0.4031 H         1 CRO         0.1145
     27 HB1         2.0364    1.1242   -1.2744 H         1 CRO         0.0920
     28 HG11        0.8355    3.1583   -2.0600 H         1 CRO         0.0647
     29 HG12       -0.4460    2.8649   -0.8657 H         1 CRO         0.0647
     30 HG13       -0.2271    1.7342   -2.1889 H         1 CRO         0.0647
     31 HOG1        2.6066    1.9434    0.7441 H         1 CRO         0.4289
     32 HA31       -0.7588   -1.7823   -0.2514 H         1 CRO        -0.0059
     33 HA32       -0.2377   -3.4103    0.2231 H         1 CRO        -0.0059
     34 HB2         4.6518   -2.9830    1.9249 H         1 CRO         0.1337
     35 HD1         6.4922   -2.0748    3.4345 H         1 CRO         0.1102
     36 HD2         4.7743    0.3088    0.2741 H         1 CRO         0.1102
     37 HE1         8.3235   -0.4712    3.6585 H         1 CRO         0.1190
     38 HE2         6.6015    1.9196    0.4865 H         1 CRO         0.1190
     39 H39         0.4434    1.9425    1.6892 H         1 CRO         0.4473
@<TRIPOS>BOND
     1    1    2 1
     2    1   24 1
     3    1   25 1
     4    1   39 1
     5    2    6 1
     6    2   26 1
     7    2    3 1
     8    3   27 1
     9    3    4 1
    10    3    5 1
    11    4   28 1
    12    4   29 1
    13    4   30 1
    14    5   31 1
    15    6    8 1
    16    6    7 2
    17    7   11 1
    18    8   12 1
    19    8    9 am
    20    9   10 2
    21    9   11 1
    22   11   15 2
    23   12   13 1
    24   12   32 1
    25   12   33 1
    26   13   14 2
    27   13   23 1
    28   15   34 1
    29   15   16 1
    30   16   18 ar
    31   16   17 ar
    32   17   35 1
    33   17   19 ar
    34   18   36 1
    35   18   20 ar
    36   19   21 ar
    37   19   37 1
    38   20   38 1
    39   20   21 ar
    40   21   22 1
@<TRIPOS>SUBSTRUCTURE
     1 CRO         1 GROUP 0 A     ****
@<TRIPOS>MOLECULE
2-[2-(1-azaniumyl-2-hydroxy-propyl)-4-[(4-oxidophenyl)methylene]-5-oxo-imidazol-1-yl]acetate
   39    40     1     0     0
SMALL
USER_CHARGES

@<TRIPOS>ATOM
      1 N1          1.0222    1.7804    0.7805 N.4       1 CRO        -0.8501
      2 CA1         0.5732    0.4928    0.1805 C.3       1 CRO         0.1681
      3 CB1         0.5296    0.6414   -1.3421 C.3       1 CRO         0.1331
      4 CG1         1.9079    0.4894   -1.9765 C.3       1 CRO        -0.1293
      5 OG1        -0.3499   -0.3300   -1.9048 O.3       1 CRO        -0.6634
      6 C1          1.4892   -0.5940    0.6489 C.2       1 CRO         0.1622
      7 N2          2.7381   -0.3909    0.9403 N.2       1 CRO        -0.4972
      8 N3          1.0483   -1.8657    0.7922 N.am      1 CRO        -0.3804
      9 C2          2.1014   -2.6269    1.2300 C.2       1 CRO         0.7015
     10 O2          2.1723   -3.8122    1.4926 O.2       1 CRO        -0.6009
     11 CA2         3.1974   -1.6295    1.3176 C.2       1 CRO        -0.1806
     12 CA3        -0.2897   -2.3685    0.5385 C.3       1 CRO        -0.0518
     13 C3         -0.1275   -3.4249   -0.5365 C.2       1 CRO         0.9408
     14 O3         -0.4870   -4.5896   -0.2039 O.2       1 CRO        -0.8065
     15 CB2         4.4344   -1.9362    1.7110 C.2       1 CRO         0.1361
     16 CG2         5.5079   -0.9931    1.8392 C.ar      1 CRO        -0.2678
     17 CD1         6.8255   -1.4045    1.6380 C.ar      1 CRO        -0.0100
     18 CD2         5.2340    0.3351    2.1651 C.ar      1 CRO        -0.0100
     19 CE1         7.8691   -0.4875    1.7626 C.ar      1 CRO        -0.3077
     20 CE2         6.2777    1.2521    2.2897 C.ar      1 CRO        -0.3077
     21 CZ          7.5953    0.8408    2.0884 C.ar      1 CRO         0.5737
     22 OH          8.5538    1.6831    2.2030 O.co2     1 CRO        -0.6974
     23 OXT         0.3666   -3.0128   -1.6239 Du        1 CRO        -0.8065
     24 HN11        1.5329    1.6264    1.6599 H         1 CRO         0.4473
     25 H2          0.2239    2.3944    0.9898 H         1 CRO         0.4473
     26 HA1        -0.4279    0.3043    0.5820 H         1 CRO         0.1145
     27 HB1         0.1318    1.6307   -1.5990 H         1 CRO         0.0920
     28 HG11        1.8591    0.5982   -3.0643 H         1 CRO         0.0647
     29 HG12        2.3248   -0.4972   -1.7461 H         1 CRO         0.0647
     30 HG13        2.6151    1.2246   -1.5777 H         1 CRO         0.0647
     31 HOG1       -1.2244   -0.1651   -1.5202 H         1 CRO         0.4289
     32 HA31       -0.7033   -2.7905    1.4541 H         1 CRO        -0.0059
     33 HA32       -0.9313   -1.5542    0.2024 H         1 CRO        -0.0059
     34 HB2         4.6518   -2.9830    1.9249 H         1 CRO         0.1337
     35 HD1         7.0547   -2.4365    1.3831 H         1 CRO         0.1102
     36 HD2         4.2120    0.6702    2.3254 H         1 CRO         0.1102
     37 HE1         8.8884   -0.8346    1.6008 H         1 CRO         0.1190
     38 HE2         6.0366    2.2830    2.5444 H         1 CRO         0.1190
     39 H39         1.6481    2.2922    0.1447 H         1 CRO         0.4473
@<TRIPOS>BOND
     1    1    2 1
     2    1   24 1
     3    1   25 1
     4    1   39 1
     5    2    6 1
     6    2   26 1
     7    2    3 1
     8    3   27 1
     9    3    4 1
    10    3    5 1
    11    4   28 1
    12    4   29 1
    13    4   30 1
    14    5   31 1
    15    6    8 1
    16    6    7 2
    17    7   11 1
    18    8   12 1
    19    8    9 am
    20    9   10 2
    21    9   11 1
    22   11   15 2
    23   12   13 1
    24   12   32 1
    25   12   33 1
    26   13   14 2
    27   13   23 1
    28   15   34 1
    29   15   16 1
    30   16   18 ar
    31   16   17 ar
    32   17   35 1
    33   17   19 ar
    34   18   36 1
    35   18   20 ar
    36   19   21 ar
    37   19   37 1
    38   20   38 1
    39   20   21 ar
    40   21   22 1
@<TRIPOS>SUBSTRUCTURE
     1 CRO         1 GROUP 0 A     ****
@<TRIPOS>MOLECULE
2-[2-(1-azaniumyl-2-hydroxy-propyl)-4-[(4-oxidophenyl)methylene]-5-oxo-imidazol-1-yl]acetate
   39    40     1     0     0
SMALL
USER_CHARGES

@<TRIPOS>ATOM
      1 N1          1.0222    1.7804    0.7805 N.4       1 CRO        -0.8501
      2 CA1         0.5732    0.4928    0.1805 C.3       1 CRO         0.1681
      3 CB1         0.5296    0.6414   -1.3421 C.3       1 CRO         0.1331
      4 CG1         1.9079    0.4894   -1.9765 C.3       1 CRO        -0.1293
      5 OG1        -0.3499   -0.3300   -1.9048 O.3       1 CRO        -0.6634
      6 C1          1.4892   -0.5940    0.6489 C.2       1 CRO         0.1622
      7 N2          2.7381   -0.3909    0.9403 N.2       1 CRO        -0.4972
      8 N3          1.0483   -1.8657    0.7922 N.am      1 CRO        -0.3804
      9 C2          2.1014   -2.6269    1.2300 C.2       1 CRO         0.7015
     10 O2          2.1723   -3.8122    1.4926 O.2       1 CRO        -0.6009
     11 CA2         3.1974   -1.6295    1.3176 C.2       1 CRO        -0.1806
     12 CA3        -0.2897   -2.3685    0.5385 C.3       1 CRO        -0.0518
     13 C3         -0.7672   -2.9329    1.8619 C.2       1 CRO         0.9408
     14 O3         -1.0757   -4.1580    1.8437 O.2       1 CRO        -0.8065
     15 CB2         4.4344   -1.9362    1.7110 C.2       1 CRO         0.1361
     16 CG2         5.5079   -0.9931    1.8392 C.ar      1 CRO        -0.2678
     17 CD1         6.8255   -1.4045    1.6380 C.ar      1 CRO        -0.0100
     18 CD2         5.2340    0.3351    2.1651 C.ar      1 CRO        -0.0100
     19 CE1         7.8691   -0.4875    1.7626 C.ar      1 CRO        -0.3077
     20 CE2         6.2777    1.2521    2.2897 C.ar      1 CRO        -0.3077
     21 CZ          7.5953    0.8408    2.0884 C.ar      1 CRO         0.5737
     22 OH          8.5538    1.6831    2.2030 O.co2     1 CRO        -0.6974
     23 OXT        -0.8169   -2.1026    2.8130 Du        1 CRO        -0.8065
     24 HN11        1.5329    1.6264    1.6599 H         1 CRO         0.4473
     25 H2          0.2239    2.3944    0.9898 H         1 CRO         0.4473
     26 HA1        -0.4279    0.3043    0.5820 H         1 CRO         0.1145
     27 HB1         0.1318    1.6307   -1.5990 H         1 CRO         0.0920
     28 HG11        1.8591    0.5982   -3.0643 H         1 CRO         0.0647
     29 HG12        2.3248   -0.4972   -1.7461 H         1 CRO         0.0647
     30 HG13        2.6151    1.2246   -1.5777 H         1 CRO         0.0647
     31 HOG1        0.0032   -1.1980   -1.6561 H         1 CRO         0.4289
     32 HA31       -0.9293   -1.5549    0.1972 H         1 CRO        -0.0059
     33 HA32       -0.2536   -3.1380   -0.2324 H         1 CRO        -0.0059
     34 HB2         4.6518   -2.9830    1.9249 H         1 CRO         0.1337
     35 HD1         7.0547   -2.4365    1.3831 H         1 CRO         0.1102
     36 HD2         4.2120    0.6702    2.3254 H         1 CRO         0.1102
     37 HE1         8.8884   -0.8346    1.6008 H         1 CRO         0.1190
     38 HE2         6.0366    2.2830    2.5444 H         1 CRO         0.1190
     39 H39         1.6481    2.2922    0.1447 H         1 CRO         0.4473
@<TRIPOS>BOND
     1    1    2 1
     2    1   24 1
     3    1   25 1
     4    1   39 1
     5    2    6 1
     6    2   26 1
     7    2    3 1
     8    3   27 1
     9    3    4 1
    10    3    5 1
    11    4   28 1
    12    4   29 1
    13    4   30 1
    14    5   31 1
    15    6    8 1
    16    6    7 2
    17    7   11 1
    18    8   12 1
    19    8    9 am
    20    9   10 2
    21    9   11 1
    22   11   15 2
    23   12   13 1
    24   12   32 1
    25   12   33 1
    26   13   14 2
    27   13   23 1
    28   15   34 1
    29   15   16 1
    30   16   18 ar
    31   16   17 ar
    32   17   35 1
    33   17   19 ar
    34   18   36 1
    35   18   20 ar
    36   19   21 ar
    37   19   37 1
    38   20   38 1
    39   20   21 ar
    40   21   22 1
@<TRIPOS>SUBSTRUCTURE
     1 CRO         1 GROUP 0 A     ****
@<TRIPOS>MOLECULE
2-[2-(1-azaniumyl-2-hydroxy-propyl)-4-[(4-oxidophenyl)methylene]-5-oxo-imidazol-1-yl]acetate
   39    40     1     0     0
SMALL
USER_CHARGES

@<TRIPOS>ATOM
      1 N1         -0.5547    0.6091    1.1469 N.4       1 CRO        -0.8501
      2 CA1         0.5732    0.4928    0.1805 C.3       1 CRO         0.1681
      3 CB1         1.2583    1.8550    0.0486 C.3       1 CRO         0.1331
      4 CG1         1.8297    2.3445    1.3748 C.3       1 CRO        -0.1293
      5 OG1         2.3100    1.7841   -0.9119 O.3       1 CRO        -0.6634
      6 C1          1.4892   -0.5940    0.6489 C.2       1 CRO         0.1622
      7 N2          2.7381   -0.3909    0.9403 N.2       1 CRO        -0.4972
      8 N3          1.0483   -1.8657    0.7922 N.am      1 CRO        -0.3804
      9 C2          2.1014   -2.6269    1.2300 C.2       1 CRO         0.7015
     10 O2          2.1723   -3.8122    1.4926 O.2       1 CRO        -0.6009
     11 CA2         3.1974   -1.6295    1.3176 C.2       1 CRO        -0.1806
     12 CA3        -0.2897   -2.3685    0.5385 C.3       1 CRO        -0.0518
     13 C3         -0.1275   -3.4249   -0.5365 C.2       1 CRO         0.9408
     14 O3         -0.4870   -4.5896   -0.2039 O.2       1 CRO        -0.8065
     15 CB2         4.4344   -1.9362    1.7110 C.2       1 CRO         0.1361
     16 CG2         5.5079   -0.9931    1.8392 C.ar      1 CRO        -0.2678
     17 CD1         6.6711   -1.1539    1.0863 C.ar      1 CRO        -0.0100
     18 CD2         5.3884    0.0844    2.7167 C.ar      1 CRO        -0.0100
     19 CE1         7.7148   -0.2369    1.2109 C.ar      1 CRO        -0.3077
     20 CE2         6.4321    1.0014    2.8414 C.ar      1 CRO        -0.3077
     21 CZ          7.5953    0.8408    2.0885 C.ar      1 CRO         0.5737
     22 OH          8.5539    1.6830    2.2030 O.co2     1 CRO        -0.6974
     23 OXT         0.3666   -3.0128   -1.6239 Du        1 CRO        -0.8065
     24 HN11       -0.7168   -0.2774    1.6424 H         1 CRO         0.4473
     25 H2         -1.4308    0.8622    0.6710 H         1 CRO         0.4473
     26 HA1         0.1263    0.1880   -0.7715 H         1 CRO         0.1145
     27 HB1         0.5325    2.5926   -0.3150 H         1 CRO         0.0920
     28 HG11        2.3156    3.3187    1.2631 H         1 CRO         0.0647
     29 HG12        2.5688    1.6312    1.7558 H         1 CRO         0.0647
     30 HG13        1.0513    2.4221    2.1414 H         1 CRO         0.0647
     31 HOG1        1.8995    1.5253   -1.7512 H         1 CRO         0.4289
     32 HA31       -0.7033   -2.7905    1.4541 H         1 CRO        -0.0059
     33 HA32       -0.9313   -1.5542    0.2024 H         1 CRO        -0.0059
     34 HB2         4.6518   -2.9830    1.9249 H         1 CRO         0.1337
     35 HD1         6.7789   -1.9886    0.3978 H         1 CRO         0.1102
     36 HD2         4.4879    0.2223    3.3105 H         1 CRO         0.1102
     37 HE1         8.6120   -0.3856    0.6122 H         1 CRO         0.1190
     38 HE2         6.3131    1.8339    3.5331 H         1 CRO         0.1190
     39 H39        -0.3680    1.3304    1.8560 H         1 CRO         0.4473
@<TRIPOS>BOND
     1    1    2 1
     2    1   24 1
     3    1   25 1
     4    1   39 1
     5    2    6 1
     6    2   26 1
     7    2    3 1
     8    3   27 1
     9    3    4 1
    10    3    5 1
    11    4   28 1
    12    4   29 1
    13    4   30 1
    14    5   31 1
    15    6    8 1
    16    6    7 2
    17    7   11 1
    18    8   12 1
    19    8    9 am
    20    9   10 2
    21    9   11 1
    22   11   15 2
    23   12   13 1
    24   12   32 1
    25   12   33 1
    26   13   14 2
    27   13   23 1
    28   15   34 1
    29   15   16 1
    30   16   18 ar
    31   16   17 ar
    32   17   35 1
    33   17   19 ar
    34   18   36 1
    35   18   20 ar
    36   19   21 ar
    37   19   37 1
    38   20   38 1
    39   20   21 ar
    40   21   22 1
@<TRIPOS>SUBSTRUCTURE
     1 CRO         1 GROUP 0 A     ****
@<TRIPOS>MOLECULE
2-[2-(1-azaniumyl-2-hydroxy-propyl)-4-[(4-oxidophenyl)methylene]-5-oxo-imidazol-1-yl]acetate
   39    40     1     0     0
SMALL
USER_CHARGES

@<TRIPOS>ATOM
      1 N1         -0.5547    0.6091    1.1469 N.4       1 CRO        -0.8501
      2 CA1         0.5732    0.4928    0.1805 C.3       1 CRO         0.1681
      3 CB1         1.2583    1.8550    0.0486 C.3       1 CRO         0.1331
      4 CG1         1.8297    2.3445    1.3748 C.3       1 CRO        -0.1293
      5 OG1         2.3100    1.7841   -0.9119 O.3       1 CRO        -0.6634
      6 C1          1.4892   -0.5940    0.6489 C.2       1 CRO         0.1622
      7 N2          2.7381   -0.3909    0.9403 N.2       1 CRO        -0.4972
      8 N3          1.0483   -1.8657    0.7922 N.am      1 CRO        -0.3804
      9 C2          2.1014   -2.6269    1.2300 C.2       1 CRO         0.7015
     10 O2          2.1723   -3.8122    1.4926 O.2       1 CRO        -0.6009
     11 CA2         3.1974   -1.6295    1.3176 C.2       1 CRO        -0.1806
     12 CA3        -0.2897   -2.3685    0.5385 C.3       1 CRO        -0.0518
     13 C3         -0.7672   -2.9329    1.8619 C.2       1 CRO         0.9408
     14 O3         -1.0757   -4.1580    1.8437 O.2       1 CRO        -0.8065
     15 CB2         4.4344   -1.9362    1.7110 C.2       1 CRO         0.1361
     16 CG2         5.5079   -0.9931    1.8392 C.ar      1 CRO        -0.2678
     17 CD1         6.1253   -0.8028    3.0754 C.ar      1 CRO        -0.0100
     18 CD2         5.9341   -0.2664    0.7275 C.ar      1 CRO        -0.0100
     19 CE1         7.1690    0.1141    3.1999 C.ar      1 CRO        -0.3077
     20 CE2         6.9778    0.6505    0.8520 C.ar      1 CRO        -0.3077
     21 CZ          7.5953    0.8408    2.0882 C.ar      1 CRO         0.5737
     22 OH          8.5539    1.6831    2.2026 O.co2     1 CRO        -0.6974
     23 OXT        -0.8169   -2.1026    2.8130 Du        1 CRO        -0.8065
     24 HN11       -0.7168   -0.2774    1.6424 H         1 CRO         0.4473
     25 H2         -1.4308    0.8622    0.6710 H         1 CRO         0.4473
     26 HA1         0.1263    0.1880   -0.7715 H         1 CRO         0.1145
     27 HB1         0.5325    2.5926   -0.3150 H         1 CRO         0.0920
     28 HG11        2.3156    3.3187    1.2631 H         1 CRO         0.0647
     29 HG12        2.5688    1.6312    1.7558 H         1 CRO         0.0647
     30 HG13        1.0513    2.4221    2.1414 H         1 CRO         0.0647
     31 HOG1        1.8995    1.5253   -1.7512 H         1 CRO         0.4289
     32 HA31       -0.9293   -1.5549    0.1972 H         1 CRO        -0.0059
     33 HA32       -0.2536   -3.1380   -0.2324 H         1 CRO        -0.0059
     34 HB2         4.6518   -2.9830    1.9249 H         1 CRO         0.1337
     35 HD1         5.8044   -1.3622    3.9510 H         1 CRO         0.1102
     36 HD2         5.4619   -0.4037   -0.2424 H         1 CRO         0.1102
     37 HE1         7.6335    0.2439    4.1761 H         1 CRO         0.1190
     38 HE2         7.2915    1.2045   -0.0314 H         1 CRO         0.1190
     39 H39        -0.3680    1.3304    1.8560 H         1 CRO         0.4473
@<TRIPOS>BOND
     1    1    2 1
     2    1   24 1
     3    1   25 1
     4    1   39 1
     5    2    6 1
     6    2   26 1
     7    2    3 1
     8    3   27 1
     9    3    4 1
    10    3    5 1
    11    4   28 1
    12    4   29 1
    13    4   30 1
    14    5   31 1
    15    6    8 1
    16    6    7 2
    17    7   11 1
    18    8   12 1
    19    8    9 am
    20    9   10 2
    21    9   11 1
    22   11   15 2
    23   12   13 1
    24   12   32 1
    25   12   33 1
    26   13   14 2
    27   13   23 1
    28   15   34 1
    29   15   16 1
    30   16   18 ar
    31   16   17 ar
    32   17   35 1
    33   17   19 ar
    34   18   36 1
    35   18   20 ar
    36   19   21 ar
    37   19   37 1
    38   20   38 1
    39   20   21 ar
    40   21   22 1
@<TRIPOS>SUBSTRUCTURE
     1 CRO         1 GROUP 0 A     ****
@<TRIPOS>MOLECULE
2-[2-(1-azaniumyl-2-hydroxy-propyl)-4-[(4-oxidophenyl)methylene]-5-oxo-imidazol-1-yl]acetate
   39    40     1     0     0
SMALL
USER_CHARGES

@<TRIPOS>ATOM
      1 N1          0.5040    1.5405    1.2375 N.4       1 CRO        -0.8501
      2 CA1         0.5732    0.4928    0.1805 C.3       1 CRO         0.1681
      3 CB1         1.0149    1.1401   -1.1341 C.3       1 CRO         0.1331
      4 CG1         2.3927    1.7844   -1.0258 C.3       1 CRO        -0.1293
      5 OG1         1.0383    0.1671   -2.1764 O.3       1 CRO        -0.6634
      6 C1          1.4892   -0.5940    0.6489 C.2       1 CRO         0.1622
      7 N2          2.7381   -0.3909    0.9403 N.2       1 CRO        -0.4972
      8 N3          1.0483   -1.8657    0.7922 N.am      1 CRO        -0.3804
      9 C2          2.1014   -2.6269    1.2300 C.2       1 CRO         0.7015
     10 O2          2.1723   -3.8122    1.4926 O.2       1 CRO        -0.6009
     11 CA2         3.1974   -1.6295    1.3176 C.2       1 CRO        -0.1806
     12 CA3        -0.2897   -2.3685    0.5385 C.3       1 CRO        -0.0518
     13 C3         -0.5574   -2.0841   -0.9262 C.2       1 CRO         0.9408
     14 O3         -1.5612   -1.3522   -1.1568 O.2       1 CRO        -0.8065
     15 CB2         4.4344   -1.9362    1.7110 C.2       1 CRO         0.1361
     16 CG2         5.5079   -0.9931    1.8392 C.ar      1 CRO        -0.2678
     17 CD1         6.6711   -1.1539    1.0863 C.ar      1 CRO        -0.0100
     18 CD2         5.3884    0.0844    2.7167 C.ar      1 CRO        -0.0100
     19 CE1         7.7148   -0.2369    1.2109 C.ar      1 CRO        -0.3077
     20 CE2         6.4321    1.0014    2.8414 C.ar      1 CRO        -0.3077
     21 CZ          7.5953    0.8408    2.0885 C.ar      1 CRO         0.5737
     22 OH          8.5539    1.6830    2.2030 O.co2     1 CRO        -0.6974
     23 OXT         0.2444   -2.6318   -1.7347 Du        1 CRO        -0.8065
     24 HN11        0.7084    1.1498    2.1666 H         1 CRO         0.4473
     25 H2         -0.4307    1.9678    1.2803 H         1 CRO         0.4473
     26 HA1        -0.4388    0.0840    0.0923 H         1 CRO         0.1145
     27 HB1         0.2886    1.9101   -1.4216 H         1 CRO         0.0920
     28 HG11        2.6933    2.2422   -1.9732 H         1 CRO         0.0647
     29 HG12        3.1420    1.0337   -0.7514 H         1 CRO         0.0647
     30 HG13        2.4170    2.5469   -0.2398 H         1 CRO         0.0647
     31 HOG1        1.6703   -0.5150   -1.9021 H         1 CRO         0.4289
     32 HA31       -0.3273   -3.4366    0.7514 H         1 CRO        -0.0059
     33 HA32       -1.0041   -1.8539    1.1807 H         1 CRO        -0.0059
     34 HB2         4.6518   -2.9830    1.9249 H         1 CRO         0.1337
     35 HD1         6.7789   -1.9886    0.3978 H         1 CRO         0.1102
     36 HD2         4.4879    0.2223    3.3105 H         1 CRO         0.1102
     37 HE1         8.6120   -0.3856    0.6122 H         1 CRO         0.1190
     38 HE2         6.3131    1.8339    3.5331 H         1 CRO         0.1190
     39 H39         1.1814    2.2945    1.0628 H         1 CRO         0.4473
@<TRIPOS>BOND
     1    1    2 1
     2    1   24 1
     3    1   25 1
     4    1   39 1
     5    2    6 1
     6    2   26 1
     7    2    3 1
     8    3   27 1
     9    3    4 1
    10    3    5 1
    11    4   28 1
    12    4   29 1
    13    4   30 1
    14    5   31 1
    15    6    8 1
    16    6    7 2
    17    7   11 1
    18    8   12 1
    19    8    9 am
    20    9   10 2
    21    9   11 1
    22   11   15 2
    23   12   13 1
    24   12   32 1
    25   12   33 1
    26   13   14 2
    27   13   23 1
    28   15   34 1
    29   15   16 1
    30   16   18 ar
    31   16   17 ar
    32   17   35 1
    33   17   19 ar
    34   18   36 1
    35   18   20 ar
    36   19   21 ar
    37   19   37 1
    38   20   38 1
    39   20   21 ar
    40   21   22 1
@<TRIPOS>SUBSTRUCTURE
     1 CRO         1 GROUP 0 A     ****
@<TRIPOS>MOLECULE
2-[2-(1-azaniumyl-2-hydroxy-propyl)-4-[(4-oxidophenyl)methylene]-5-oxo-imidazol-1-yl]acetate
   39    40     1     0     0
SMALL
USER_CHARGES

@<TRIPOS>ATOM
      1 N1         -0.5547    0.6091    1.1469 N.4       1 CRO        -0.8501
      2 CA1         0.5732    0.4928    0.1805 C.3       1 CRO         0.1681
      3 CB1         1.2583    1.8550    0.0486 C.3       1 CRO         0.1331
      4 CG1         2.0628    1.9739   -1.2414 C.3       1 CRO        -0.1293
      5 OG1         0.2870    2.8984    0.0875 O.3       1 CRO        -0.6634
      6 C1          1.4892   -0.5940    0.6489 C.2       1 CRO         0.1622
      7 N2          2.7381   -0.3909    0.9403 N.2       1 CRO        -0.4972
      8 N3          1.0483   -1.8657    0.7922 N.am      1 CRO        -0.3804
      9 C2          2.1014   -2.6269    1.2300 C.2       1 CRO         0.7015
     10 O2          2.1723   -3.8122    1.4926 O.2       1 CRO        -0.6009
     11 CA2         3.1974   -1.6295    1.3176 C.2       1 CRO        -0.1806
     12 CA3        -0.2897   -2.3685    0.5385 C.3       1 CRO        -0.0518
     13 C3         -0.1053   -3.8117    0.1130 C.2       1 CRO         0.9408
     14 O3         -0.6595   -4.6671    0.8597 O.2       1 CRO        -0.8065
     15 CB2         4.4344   -1.9362    1.7110 C.2       1 CRO         0.1361
     16 CG2         5.5079   -0.9931    1.8392 C.ar      1 CRO        -0.2678
     17 CD1         6.6711   -1.1539    1.0863 C.ar      1 CRO        -0.0100
     18 CD2         5.3884    0.0844    2.7167 C.ar      1 CRO        -0.0100
     19 CE1         7.7148   -0.2369    1.2109 C.ar      1 CRO        -0.3077
     20 CE2         6.4321    1.0014    2.8414 C.ar      1 CRO        -0.3077
     21 CZ          7.5953    0.8408    2.0885 C.ar      1 CRO         0.5737
     22 OH          8.5539    1.6830    2.2030 O.co2     1 CRO        -0.6974
     23 OXT         0.5973   -3.9802   -0.9236 Du        1 CRO        -0.8065
     24 HN11       -0.7168   -0.2774    1.6424 H         1 CRO         0.4473
     25 H2         -1.4308    0.8622    0.6710 H         1 CRO         0.4473
     26 HA1         0.1263    0.1880   -0.7715 H         1 CRO         0.1145
     27 HB1         1.9342    2.0053    0.8993 H         1 CRO         0.0920
     28 HG11        2.5456    2.9527   -1.3200 H         1 CRO         0.0647
     29 HG12        1.4087    1.8401   -2.1100 H         1 CRO         0.0647
     30 HG13        2.8288    1.1939   -1.3083 H         1 CRO         0.0647
     31 HOG1        0.7745    3.7318    0.0004 H         1 CRO         0.4289
     32 HA31       -0.8887   -2.2929    1.4457 H         1 CRO        -0.0059
     33 HA32       -0.7614   -1.7792   -0.2475 H         1 CRO        -0.0059
     34 HB2         4.6518   -2.9830    1.9249 H         1 CRO         0.1337
     35 HD1         6.7789   -1.9886    0.3978 H         1 CRO         0.1102
     36 HD2         4.4879    0.2223    3.3105 H         1 CRO         0.1102
     37 HE1         8.6120   -0.3856    0.6122 H         1 CRO         0.1190
     38 HE2         6.3131    1.8339    3.5331 H         1 CRO         0.1190
     39 H39        -0.3680    1.3304    1.8560 H         1 CRO         0.4473
@<TRIPOS>BOND
     1    1    2 1
     2    1   24 1
     3    1   25 1
     4    1   39 1
     5    2    6 1
     6    2   26 1
     7    2    3 1
     8    3   27 1
     9    3    4 1
    10    3    5 1
    11    4   28 1
    12    4   29 1
    13    4   30 1
    14    5   31 1
    15    6    8 1
    16    6    7 2
    17    7   11 1
    18    8   12 1
    19    8    9 am
    20    9   10 2
    21    9   11 1
    22   11   15 2
    23   12   13 1
    24   12   32 1
    25   12   33 1
    26   13   14 2
    27   13   23 1
    28   15   34 1
    29   15   16 1
    30   16   18 ar
    31   16   17 ar
    32   17   35 1
    33   17   19 ar
    34   18   36 1
    35   18   20 ar
    36   19   21 ar
    37   19   37 1
    38   20   38 1
    39   20   21 ar
    40   21   22 1
@<TRIPOS>SUBSTRUCTURE
     1 CRO         1 GROUP 0 A     ****
@<TRIPOS>MOLECULE
2-[2-(1-azaniumyl-2-hydroxy-propyl)-4-[(4-oxidophenyl)methylene]-5-oxo-imidazol-1-yl]acetate
   39    40     1     0     0
SMALL
USER_CHARGES

@<TRIPOS>ATOM
      1 N1          0.0641    0.1312   -1.1721 N.4       1 CRO        -0.8501
      2 CA1         0.5732    0.4928    0.1805 C.3       1 CRO         0.1681
      3 CB1        -0.6168    0.7331    1.1125 C.3       1 CRO         0.1331
      4 CG1        -0.2378    1.5729    2.3276 C.3       1 CRO        -0.1293
      5 OG1        -1.6688    1.3872    0.4061 O.3       1 CRO        -0.6634
      6 C1          1.4892   -0.5940    0.6489 C.2       1 CRO         0.1622
      7 N2          2.7381   -0.3909    0.9403 N.2       1 CRO        -0.4972
      8 N3          1.0483   -1.8657    0.7922 N.am      1 CRO        -0.3804
      9 C2          2.1014   -2.6269    1.2300 C.2       1 CRO         0.7015
     10 O2          2.1723   -3.8122    1.4926 O.2       1 CRO        -0.6009
     11 CA2         3.1974   -1.6295    1.3176 C.2       1 CRO        -0.1806
     12 CA3        -0.2897   -2.3685    0.5385 C.3       1 CRO        -0.0518
     13 C3         -0.1275   -3.4249   -0.5365 C.2       1 CRO         0.9408
     14 O3         -0.4870   -4.5896   -0.2039 O.2       1 CRO        -0.8065
     15 CB2         4.4344   -1.9362    1.7110 C.2       1 CRO         0.1361
     16 CG2         5.5079   -0.9931    1.8392 C.ar      1 CRO        -0.2678
     17 CD1         6.6711   -1.1539    1.0863 C.ar      1 CRO        -0.0100
     18 CD2         5.3884    0.0844    2.7167 C.ar      1 CRO        -0.0100
     19 CE1         7.7148   -0.2369    1.2109 C.ar      1 CRO        -0.3077
     20 CE2         6.4321    1.0014    2.8414 C.ar      1 CRO        -0.3077
     21 CZ          7.5953    0.8408    2.0885 C.ar      1 CRO         0.5737
     22 OH          8.5539    1.6830    2.2030 O.co2     1 CRO        -0.6974
     23 OXT         0.3666   -3.0128   -1.6239 Du        1 CRO        -0.8065
     24 HN11        0.7162   -0.4943   -1.6633 H         1 CRO         0.4473
     25 H2         -0.0651    0.9660   -1.7590 H         1 CRO         0.4473
     26 HA1         1.1564    1.4102    0.0495 H         1 CRO         0.1145
     27 HB1        -1.0063   -0.2316    1.4599 H         1 CRO         0.0920
     28 HG11       -1.0990    1.7353    2.9829 H         1 CRO         0.0647
     29 HG12        0.1437    2.5495    2.0096 H         1 CRO         0.0647
     30 HG13        0.5640    1.1011    2.9056 H         1 CRO         0.0647
     31 HOG1       -2.3904    1.5127    1.0413 H         1 CRO         0.4289
     32 HA31       -0.7033   -2.7905    1.4541 H         1 CRO        -0.0059
     33 HA32       -0.9313   -1.5542    0.2024 H         1 CRO        -0.0059
     34 HB2         4.6518   -2.9830    1.9249 H         1 CRO         0.1337
     35 HD1         6.7789   -1.9886    0.3978 H         1 CRO         0.1102
     36 HD2         4.4879    0.2223    3.3105 H         1 CRO         0.1102
     37 HE1         8.6120   -0.3856    0.6122 H         1 CRO         0.1190
     38 HE2         6.3131    1.8339    3.5331 H         1 CRO         0.1190
     39 H39        -0.8429   -0.3504   -1.1149 H         1 CRO         0.4473
@<TRIPOS>BOND
     1    1    2 1
     2    1   24 1
     3    1   25 1
     4    1   39 1
     5    2    6 1
     6    2   26 1
     7    2    3 1
     8    3   27 1
     9    3    4 1
    10    3    5 1
    11    4   28 1
    12    4   29 1
    13    4   30 1
    14    5   31 1
    15    6    8 1
    16    6    7 2
    17    7   11 1
    18    8   12 1
    19    8    9 am
    20    9   10 2
    21    9   11 1
    22   11   15 2
    23   12   13 1
    24   12   32 1
    25   12   33 1
    26   13   14 2
    27   13   23 1
    28   15   34 1
    29   15   16 1
    30   16   18 ar
    31   16   17 ar
    32   17   35 1
    33   17   19 ar
    34   18   36 1
    35   18   20 ar
    36   19   21 ar
    37   19   37 1
    38   20   38 1
    39   20   21 ar
    40   21   22 1
@<TRIPOS>SUBSTRUCTURE
     1 CRO         1 GROUP 0 A     ****
@<TRIPOS>MOLECULE
2-[2-(1-azaniumyl-2-hydroxy-propyl)-4-[(4-oxidophenyl)methylene]-5-oxo-imidazol-1-yl]acetate
   39    40     1     0     0
SMALL
USER_CHARGES

@<TRIPOS>ATOM
      1 N1          0.0641    0.1312   -1.1721 N.4       1 CRO        -0.8501
      2 CA1         0.5732    0.4928    0.1805 C.3       1 CRO         0.1681
      3 CB1        -0.6168    0.7331    1.1125 C.3       1 CRO         0.1331
      4 CG1        -0.1781    1.1257    2.5192 C.3       1 CRO        -0.1293
      5 OG1        -1.4542    1.7593    0.5842 O.3       1 CRO        -0.6634
      6 C1          1.4892   -0.5940    0.6489 C.2       1 CRO         0.1622
      7 N2          2.7381   -0.3909    0.9403 N.2       1 CRO        -0.4972
      8 N3          1.0483   -1.8657    0.7922 N.am      1 CRO        -0.3804
      9 C2          2.1014   -2.6269    1.2300 C.2       1 CRO         0.7015
     10 O2          2.1723   -3.8122    1.4926 O.2       1 CRO        -0.6009
     11 CA2         3.1974   -1.6295    1.3176 C.2       1 CRO        -0.1806
     12 CA3        -0.2897   -2.3685    0.5385 C.3       1 CRO        -0.0518
     13 C3         -0.7672   -2.9329    1.8619 C.2       1 CRO         0.9408
     14 O3         -1.0757   -4.1580    1.8437 O.2       1 CRO        -0.8065
     15 CB2         4.4344   -1.9362    1.7110 C.2       1 CRO         0.1361
     16 CG2         5.5079   -0.9931    1.8392 C.ar      1 CRO        -0.2678
     17 CD1         6.6711   -1.1539    1.0863 C.ar      1 CRO        -0.0100
     18 CD2         5.3884    0.0844    2.7167 C.ar      1 CRO        -0.0100
     19 CE1         7.7148   -0.2369    1.2109 C.ar      1 CRO        -0.3077
     20 CE2         6.4321    1.0014    2.8414 C.ar      1 CRO        -0.3077
     21 CZ          7.5953    0.8408    2.0885 C.ar      1 CRO         0.5737
     22 OH          8.5539    1.6830    2.2030 O.co2     1 CRO        -0.6974
     23 OXT        -0.8169   -2.1026    2.8130 Du        1 CRO        -0.8065
     24 HN11        0.7162   -0.4943   -1.6633 H         1 CRO         0.4473
     25 H2         -0.0651    0.9660   -1.7590 H         1 CRO         0.4473
     26 HA1         1.1564    1.4102    0.0495 H         1 CRO         0.1145
     27 HB1        -1.2195   -0.1812    1.1749 H         1 CRO         0.0920
     28 HG11       -1.0400    1.2937    3.1721 H         1 CRO         0.0647
     29 HG12        0.4167    2.0453    2.4882 H         1 CRO         0.0647
     30 HG13        0.4623    0.3584    2.9672 H         1 CRO         0.0647
     31 HOG1       -0.9054    2.5559    0.5183 H         1 CRO         0.4289
     32 HA31       -0.9293   -1.5549    0.1972 H         1 CRO        -0.0059
     33 HA32       -0.2536   -3.1380   -0.2324 H         1 CRO        -0.0059
     34 HB2         4.6518   -2.9830    1.9249 H         1 CRO         0.1337
     35 HD1         6.7789   -1.9886    0.3978 H         1 CRO         0.1102
     36 HD2         4.4879    0.2223    3.3105 H         1 CRO         0.1102
     37 HE1         8.6120   -0.3856    0.6122 H         1 CRO         0.1190
     38 HE2         6.3131    1.8339    3.5331 H         1 CRO         0.1190
     39 H39        -0.8429   -0.3504   -1.1149 H         1 CRO         0.4473
@<TRIPOS>BOND
     1    1    2 1
     2    1   24 1
     3    1   25 1
     4    1   39 1
     5    2    6 1
     6    2   26 1
     7    2    3 1
     8    3   27 1
     9    3    4 1
    10    3    5 1
    11    4   28 1
    12    4   29 1
    13    4   30 1
    14    5   31 1
    15    6    8 1
    16    6    7 2
    17    7   11 1
    18    8   12 1
    19    8    9 am
    20    9   10 2
    21    9   11 1
    22   11   15 2
    23   12   13 1
    24   12   32 1
    25   12   33 1
    26   13   14 2
    27   13   23 1
    28   15   34 1
    29   15   16 1
    30   16   18 ar
    31   16   17 ar
    32   17   35 1
    33   17   19 ar
    34   18   36 1
    35   18   20 ar
    36   19   21 ar
    37   19   37 1
    38   20   38 1
    39   20   21 ar
    40   21   22 1
@<TRIPOS>SUBSTRUCTURE
     1 CRO         1 GROUP 0 A     ****
