NAP
  CCTOOLS-0326171110

 76 80  0  0  1  0  0  0  0  0999 V2000
   17.1740   26.1340   12.0400 P   0  0  0  0  0
   16.0480   25.3140   12.5000 O   0  0  0  0  0
   18.4780   26.1140   12.6700 O   0  0  0  0  0
   17.3170   25.8890   10.4370 O   0  0  0  0  0
   17.8130   26.9900    9.4950 C   0  0  0  0  0
   17.9620   26.1550    8.3450 C   0  0  0  0  0
   17.8590   27.3510    7.2940 O   0  0  0  0  0
   18.8400   25.7890    7.5350 C   0  0  0  0  0
   18.2080   24.5970    7.8390 O   0  0  0  0  0
   19.2760   25.7510    6.1470 C   0  0  0  0  0
   18.8830   24.7390    5.4810 O   0  0  0  0  0
   18.3940   26.8940    5.9880 C   0  0  0  0  0
   19.2370   28.0900    5.5900 N   0  0  0  0  0
   20.4660   28.6370    6.0110 C   0  0  0  0  0
   20.9350   29.5480    5.1920 N   0  0  0  0  0
   20.0030   29.6240    4.1730 C   0  0  0  0  0
   19.9350   30.4020    2.9750 C   0  0  0  0  0
   20.8890   31.2620    2.6350 N   0  0  0  0  0
   18.8410   30.2300    2.1530 N   0  0  0  0  0
   17.8670   29.3500    2.4800 C   0  0  0  0  0
   17.8590   28.5740    3.5790 N   0  0  0  0  0
   18.9620   28.7580    4.3950 C   0  0  0  0  0
   16.4580   27.5660   12.2080 O   0  0  0  0  0
   15.2160   28.0680   13.1530 P   0  0  0  0  0
   13.9830   27.4170   12.6420 O   0  0  0  0  0
   15.3080   29.5540   13.0930 O   0  5  0  0  0
   15.4870   27.6580   14.6850 O   0  0  0  0  0
   16.5990   28.1690   15.4750 C   0  0  0  0  0
   17.3950   26.9680   16.0250 C   0  0  0  0  0
   18.6530   27.3660   16.6140 O   0  0  0  0  0
   16.6940   26.1930   17.1670 C   0  0  0  0  0
   17.0850   24.8060   17.2870 O   0  0  0  0  0
   17.0930   26.9360   18.3930 C   0  0  0  0  0
   16.9790   26.2050   19.5880 O   0  0  0  0  0
   18.5690   27.2430   18.0380 C   0  0  0  0  0
   19.1250   28.3610   18.8110 N   0  3  0  0  0
   18.5550   29.6410   18.6670 C   0  0  0  0  0
   19.1410   30.6830   19.4650 C   0  0  0  0  0
   18.6520   32.0500   19.4140 C   0  0  0  0  0
   19.1610   32.9430   20.1020 O   0  0  0  0  0
   17.6220   32.3900   18.6160 N   0  0  0  0  0
   20.2220   30.3760   20.3170 C   0  0  0  0  0
   20.7460   29.1390   20.4350 C   0  0  0  0  0
   20.2020   28.1290   19.6810 C   0  0  0  0  0
   19.6640   24.5550    4.0970 P   0  0  0  0  0
   21.1170   24.3600    4.4040 O   0  0  0  0  0
   18.9640   23.4100    3.5430 O   0  0  0  0  0
   19.3910   25.7980    3.3810 O   0  0  0  0  0
   19.2070   26.6450   12.3720 H   0  0  0  0  0
   17.1760   27.8990    9.3890 H   0  0  0  0  0
   18.7020   27.5790    9.8190 H   0  0  0  0  0
   17.4940   25.2430    8.7840 H   0  0  0  0  0
   19.7530   26.4210    7.6250 H   0  0  0  0  0
   18.8750   24.3180    7.2230 H   0  0  0  0  0
   20.3530   25.7340    5.8620 H   0  0  0  0  0
   17.5990   26.5870    5.2680 H   0  0  0  0  0
   21.0250   28.3690    6.9230 H   0  0  0  0  0
   20.8400   31.8160    1.7800 H   0  0  0  0  0
   21.7740   30.7550    2.6250 H   0  0  0  0  0
   17.0080   29.2570    1.7930 H   0  0  0  0  0
   17.2380   28.8820   14.9040 H   0  0  0  0  0
   16.2690   28.8690   16.2770 H   0  0  0  0  0
   17.5080   26.3300   15.1170 H   0  0  0  0  0
   15.5950   26.1470   16.9790 H   0  0  0  0  0
   16.6540   24.3300   17.9870 H   0  0  0  0  0
   16.4450   27.8170   18.6100 H   0  0  0  0  0
   17.2330   26.6790   20.3700 H   0  0  0  0  0
   19.2350   26.4040   18.3460 H   0  0  0  0  0
   17.7100   29.8140   17.9780 H   0  0  0  0  0
   17.2020   31.6530   18.0480 H   0  0  0  0  0
   17.2780   33.3490   18.5800 H   0  0  0  0  0
   20.6910   31.1590   20.9350 H   0  0  0  0  0
   21.5890   28.9590   21.1230 H   0  0  0  0  0
   20.6350   27.1190   19.7750 H   0  0  0  0  0
   19.4270   23.3000    2.7210 H   0  0  0  0  0
   19.8540   25.6880    2.5590 H   0  0  0  0  0
  1  2  2  0  0  0
  1  3  1  0  0  0
  1  4  1  0  0  0
  1 23  1  0  0  0
  3 49  1  0  0  0
  4  5  1  0  0  0
  5  6  1  0  0  0
  5 50  1  0  0  0
  5 51  1  0  0  0
  6  7  1  0  0  0
  6  8  1  0  0  0
  6 52  1  0  0  0
  7 12  1  0  0  0
  8  9  1  0  0  0
  8 10  1  0  0  0
  8 53  1  0  0  0
  9 54  1  0  0  0
 10 11  1  0  0  0
 10 12  1  0  0  0
 10 55  1  0  0  0
 11 45  1  0  0  0
 12 13  1  0  0  0
 12 56  1  0  0  0
 13 14  1  0  0  0
 13 22  1  0  0  0
 14 15  2  0  0  0
 14 57  1  0  0  0
 15 16  1  0  0  0
 16 17  1  0  0  0
 16 22  2  0  0  0
 17 18  1  0  0  0
 17 19  2  0  0  0
 18 58  1  0  0  0
 18 59  1  0  0  0
 19 20  1  0  0  0
 20 21  2  0  0  0
 20 60  1  0  0  0
 21 22  1  0  0  0
 23 24  1  0  0  0
 24 25  2  0  0  0
 24 26  1  0  0  0
 24 27  1  0  0  0
 27 28  1  0  0  0
 28 29  1  0  0  0
 28 61  1  0  0  0
 28 62  1  0  0  0
 29 30  1  0  0  0
 29 31  1  0  0  0
 29 63  1  0  0  0
 30 35  1  0  0  0
 31 32  1  0  0  0
 31 33  1  0  0  0
 31 64  1  0  0  0
 32 65  1  0  0  0
 33 34  1  0  0  0
 33 35  1  0  0  0
 33 66  1  0  0  0
 34 67  1  0  0  0
 35 36  1  0  0  0
 35 68  1  0  0  0
 36 37  1  0  0  0
 36 44  2  0  0  0
 37 38  2  0  0  0
 37 69  1  0  0  0
 38 39  1  0  0  0
 38 42  1  0  0  0
 39 40  2  0  0  0
 39 41  1  0  0  0
 41 70  1  0  0  0
 41 71  1  0  0  0
 42 43  2  0  0  0
 42 72  1  0  0  0
 43 44  1  0  0  0
 43 73  1  0  0  0
 44 74  1  0  0  0
 45 46  2  0  0  0
 45 47  1  0  0  0
 45 48  1  0  0  0
 47 75  1  0  0  0
 48 76  1  0  0  0
M  CHG  1  26  -1
M  CHG  1  36   1
M  END
$$$$
