@<TRIPOS>MOLECULE
NAP
   76    80     1     0     0
SMALL
NO_CHARGES

@<TRIPOS>ATOM
      1  PA        17.1740   26.1340   12.0400 P.3       1 NAP         0.0000
      2  O1A       16.0480   25.3140   12.5000 O.2       1 NAP         0.0000
      3  O2A       18.4780   26.1140   12.6700 O.3       1 NAP         0.0000
      4  O5B       17.3170   25.8890   10.4370 O.3       1 NAP         0.0000
      5  C5B       17.8130   26.9900    9.4950 C.3       1 NAP         0.0000
      6  C4B       17.9620   26.1550    8.3450 C.3       1 NAP         0.0000
      7  O4B       17.8590   27.3510    7.2940 O.3       1 NAP         0.0000
      8  C3B       18.8400   25.7890    7.5350 C.3       1 NAP         0.0000
      9  O3B       18.2080   24.5970    7.8390 O.3       1 NAP         0.0000
     10  C2B       19.2760   25.7510    6.1470 C.3       1 NAP         0.0000
     11  O2B       18.8830   24.7390    5.4810 O.3       1 NAP         0.0000
     12  C1B       18.3940   26.8940    5.9880 C.3       1 NAP         0.0000
     13  N9A       19.2370   28.0900    5.5900 N.pl3     1 NAP         0.0000
     14  C8A       20.4660   28.6370    6.0110 C.ar      1 NAP         0.0000
     15  N7A       20.9350   29.5480    5.1920 N.ar      1 NAP         0.0000
     16  C5A       20.0030   29.6240    4.1730 C.ar      1 NAP         0.0000
     17  C6A       19.9350   30.4020    2.9750 C.ar      1 NAP         0.0000
     18  N6A       20.8890   31.2620    2.6350 N.pl3     1 NAP         0.0000
     19  N1A       18.8410   30.2300    2.1530 N.ar      1 NAP         0.0000
     20  C2A       17.8670   29.3500    2.4800 C.ar      1 NAP         0.0000
     21  N3A       17.8590   28.5740    3.5790 N.ar      1 NAP         0.0000
     22  C4A       18.9620   28.7580    4.3950 C.ar      1 NAP         0.0000
     23  O3        16.4580   27.5660   12.2080 O.3       1 NAP         0.0000
     24  PN        15.2160   28.0680   13.1530 P.3       1 NAP         0.0000
     25  O1N       13.9830   27.4170   12.6420 O.2       1 NAP         0.0000
     26  O2N       15.3080   29.5540   13.0930 O.3       1 NAP         0.0000
     27  O5D       15.4870   27.6580   14.6850 O.3       1 NAP         0.0000
     28  C5D       16.5990   28.1690   15.4750 C.3       1 NAP         0.0000
     29  C4D       17.3950   26.9680   16.0250 C.3       1 NAP         0.0000
     30  O4D       18.6530   27.3660   16.6140 O.3       1 NAP         0.0000
     31  C3D       16.6940   26.1930   17.1670 C.3       1 NAP         0.0000
     32  O3D       17.0850   24.8060   17.2870 O.3       1 NAP         0.0000
     33  C2D       17.0930   26.9360   18.3930 C.3       1 NAP         0.0000
     34  O2D       16.9790   26.2050   19.5880 O.3       1 NAP         0.0000
     35  C1D       18.5690   27.2430   18.0380 C.3       1 NAP         0.0000
     36  N1N       19.1250   28.3610   18.8110 N.ar      1 NAP         0.0000
     37  C2N       18.5550   29.6410   18.6670 C.ar      1 NAP         0.0000
     38  C3N       19.1410   30.6830   19.4650 C.ar      1 NAP         0.0000
     39  C7N       18.6520   32.0500   19.4140 C.2       1 NAP         0.0000
     40  O7N       19.1610   32.9430   20.1020 O.2       1 NAP         0.0000
     41  N7N       17.6220   32.3900   18.6160 N.am      1 NAP         0.0000
     42  C4N       20.2220   30.3760   20.3170 C.ar      1 NAP         0.0000
     43  C5N       20.7460   29.1390   20.4350 C.ar      1 NAP         0.0000
     44  C6N       20.2020   28.1290   19.6810 C.ar      1 NAP         0.0000
     45  P2B       19.6640   24.5550    4.0970 P.3       1 NAP         0.0000
     46  O1X       21.1170   24.3600    4.4040 O.2       1 NAP         0.0000
     47  O2X       18.9640   23.4100    3.5430 O.3       1 NAP         0.0000
     48  O3X       19.3910   25.7980    3.3810 O.3       1 NAP         0.0000
     49 HOA2       19.2070   26.6450   12.3720 H         1 NAP         0.0000
     50 H51A       17.1760   27.8990    9.3890 H         1 NAP         0.0000
     51 H52A       18.7020   27.5790    9.8190 H         1 NAP         0.0000
     52  H4B       17.4940   25.2430    8.7840 H         1 NAP         0.0000
     53  H3B       19.7530   26.4210    7.6250 H         1 NAP         0.0000
     54 HO3A       18.8750   24.3180    7.2230 H         1 NAP         0.0000
     55  H2B       20.3530   25.7340    5.8620 H         1 NAP         0.0000
     56  H1B       17.5990   26.5870    5.2680 H         1 NAP         0.0000
     57  H8A       21.0250   28.3690    6.9230 H         1 NAP         0.0000
     58 H61A       20.8400   31.8160    1.7800 H         1 NAP         0.0000
     59 H62A       21.7740   30.7550    2.6250 H         1 NAP         0.0000
     60  H2A       17.0080   29.2570    1.7930 H         1 NAP         0.0000
     61 H51N       17.2380   28.8820   14.9040 H         1 NAP         0.0000
     62 H52N       16.2690   28.8690   16.2770 H         1 NAP         0.0000
     63  H4D       17.5080   26.3300   15.1170 H         1 NAP         0.0000
     64  H3D       15.5950   26.1470   16.9790 H         1 NAP         0.0000
     65 HO3N       16.6540   24.3300   17.9870 H         1 NAP         0.0000
     66  H2D       16.4450   27.8170   18.6100 H         1 NAP         0.0000
     67 HO2N       17.2330   26.6790   20.3700 H         1 NAP         0.0000
     68  H1D       19.2350   26.4040   18.3460 H         1 NAP         0.0000
     69  H2N       17.7100   29.8140   17.9780 H         1 NAP         0.0000
     70 H71N       17.2020   31.6530   18.0480 H         1 NAP         0.0000
     71 H72N       17.2780   33.3490   18.5800 H         1 NAP         0.0000
     72  H4N       20.6910   31.1590   20.9350 H         1 NAP         0.0000
     73  H5N       21.5890   28.9590   21.1230 H         1 NAP         0.0000
     74  H6N       20.6350   27.1190   19.7750 H         1 NAP         0.0000
     75 HOP2       19.4270   23.3000    2.7210 H         1 NAP         0.0000
     76 HOP3       19.8540   25.6880    2.5590 H         1 NAP         0.0000
@<TRIPOS>BOND
     1    1    2 2
     2    1    3 1
     3    1    4 1
     4    1   23 1
     5    3   49 1
     6    4    5 1
     7    5    6 1
     8    5   50 1
     9    5   51 1
    10    6    7 1
    11    6    8 1
    12    6   52 1
    13    7   12 1
    14    8    9 1
    15    8   10 1
    16    8   53 1
    17    9   54 1
    18   10   11 1
    19   10   12 1
    20   10   55 1
    21   11   45 1
    22   12   13 1
    23   12   56 1
    24   13   14 ar
    25   13   22 ar
    26   14   15 ar
    27   14   57 1
    28   15   16 ar
    29   16   17 ar
    30   16   22 ar
    31   17   18 1
    32   17   19 ar
    33   18   58 1
    34   18   59 1
    35   19   20 ar
    36   20   21 ar
    37   20   60 1
    38   21   22 ar
    39   23   24 1
    40   24   25 2
    41   24   26 1
    42   24   27 1
    43   27   28 1
    44   28   29 1
    45   28   61 1
    46   28   62 1
    47   29   30 1
    48   29   31 1
    49   29   63 1
    50   30   35 1
    51   31   32 1
    52   31   33 1
    53   31   64 1
    54   32   65 1
    55   33   34 1
    56   33   35 1
    57   33   66 1
    58   34   67 1
    59   35   36 1
    60   35   68 1
    61   36   37 ar
    62   36   44 ar
    63   37   38 ar
    64   37   69 1
    65   38   39 1
    66   38   42 ar
    67   39   40 2
    68   39   41 am
    69   41   70 1
    70   41   71 1
    71   42   43 ar
    72   42   72 1
    73   43   44 ar
    74   43   73 1
    75   44   74 1
    76   45   46 2
    77   45   47 1
    78   45   48 1
    79   47   75 1
    80   48   76 1
@<TRIPOS>SUBSTRUCTURE
     1 NAP         1 GROUP 0 A     ****
