FMN
                    3D
 Structure written by MMmdl.
 50 52  0  0  1  0            999 V2000
   33.8640    7.2250   13.5830 N   0  0  0  0  0  0
   33.0310    6.3190   13.0620 C   0  0  0  0  0  0
   33.1850    5.1330   13.2150 O   0  0  0  0  0  0
   31.9740    6.7210   12.1760 N   0  0  0  0  0  0
   31.7880    8.0070   11.8260 C   0  0  0  0  0  0
   30.8990    8.3580   11.0370 O   0  0  0  0  0  0
   32.7360    8.9900   12.3570 C   0  0  0  0  0  0
   32.5590   10.2790   12.1300 N   0  0  0  0  0  0
   33.3450   11.1860   12.7220 C   0  0  0  0  0  0
   33.1220   12.6070   12.4870 C   0  0  0  0  0  0
   33.8140   13.5180   13.2260 C   0  0  0  0  0  0
   33.4890   15.0180   13.1220 C   0  0  0  0  0  0
   34.8930   13.1170   14.0900 C   0  0  0  0  0  0
   35.8120   14.1150   14.7780 C   0  0  0  0  0  0
   35.1530   11.7920   14.2730 C   0  0  0  0  0  0
   34.3820   10.8090   13.6740 C   0  0  0  0  0  0
   34.5570    9.4340   13.8830 N   0  0  0  0  0  0
   33.7860    8.4950   13.2630 C   0  0  0  0  0  0
   35.5540    8.9250   14.8610 C   0  0  0  0  0  0
   34.7890    8.5870   16.1570 C   0  0  2  0  0  0
   34.4170    9.8290   16.7940 O   0  0  0  0  0  0
   35.6810    7.8210   17.1500 C   0  0  2  0  0  0
   36.8490    8.6620   17.4880 O   0  0  0  0  0  0
   36.2120    6.5180   16.5910 C   0  0  2  0  0  0
   35.1490    5.8040   15.9090 O   0  0  0  0  0  0
   36.7120    5.6340   17.7210 C   0  0  0  0  0  0
   35.6040    5.2520   18.5790 O   0  0  0  0  0  0
   35.8370    4.6280   20.0380 P   0  0  0  0  0  0
   36.5850    5.6920   20.8020 O   0  0  0  0  0  0
   36.6820    3.3640   19.8470 O   0  5  0  0  0  0
   34.4360    4.3060   20.5540 O   0  5  0  0  0  0
   31.2870    5.9681   11.7621 H   0  0  0  0  0  0
   32.4170   12.9330   11.7370 H   0  0  0  0  0  0
   32.6472   15.1636   12.4290 H   0  0  0  0  0  0
   34.3704   15.5590   12.7471 H   0  0  0  0  0  0
   33.2170   15.4040   14.1155 H   0  0  0  0  0  0
   35.4840   15.1382   14.5425 H   0  0  0  0  0  0
   36.8429   13.9694   14.4228 H   0  0  0  0  0  0
   35.7736   13.9590   15.8662 H   0  0  0  0  0  0
   35.9820   11.5000   14.9010 H   0  0  0  0  0  0
   36.0416    8.0270   14.4538 H   0  0  0  0  0  0
   36.3115    9.7000   15.0494 H   0  0  0  0  0  0
   33.8814    8.0121   15.9211 H   0  0  0  0  0  0
   33.7730   10.5471   16.2651 H   0  0  0  0  0  0
   35.0849    7.5964   18.0468 H   0  0  0  0  0  0
   36.6996    9.6649   17.9144 H   0  0  0  0  0  0
   37.0059    6.7321   15.8603 H   0  0  0  0  0  0
   34.6399    6.2650   15.0497 H   0  0  0  0  0  0
   37.1740    4.7283   17.3011 H   0  0  0  0  0  0
   37.4570    6.1840   18.3147 H   0  0  0  0  0  0
  1  2  1  0  0  0
  1 18  2  0  0  0
  2  3  2  0  0  0
  2  4  1  0  0  0
  4  5  1  0  0  0
  4 32  1  0  0  0
  5  6  2  0  0  0
  5  7  1  0  0  0
  7  8  2  0  0  0
  7 18  1  0  0  0
  8  9  1  0  0  0
  9 10  2  0  0  0
  9 16  1  0  0  0
 10 11  1  0  0  0
 10 33  1  0  0  0
 11 12  1  0  0  0
 11 13  2  0  0  0
 12 34  1  0  0  0
 12 35  1  0  0  0
 12 36  1  0  0  0
 13 14  1  0  0  0
 13 15  1  0  0  0
 14 37  1  0  0  0
 14 38  1  0  0  0
 14 39  1  0  0  0
 15 16  2  0  0  0
 15 40  1  0  0  0
 16 17  1  0  0  0
 17 18  1  0  0  0
 17 19  1  0  0  0
 19 20  1  0  0  0
 19 41  1  0  0  0
 19 42  1  0  0  0
 20 21  1  0  0  0
 20 22  1  0  0  0
 20 43  1  0  0  0
 21 44  1  0  0  0
 22 23  1  0  0  0
 22 24  1  0  0  0
 22 45  1  0  0  0
 23 46  1  0  0  0
 24 25  1  0  0  0
 24 26  1  0  0  0
 24 47  1  0  0  0
 25 48  1  0  0  0
 26 27  1  0  0  0
 26 49  1  0  0  0
 26 50  1  0  0  0
 27 28  1  0  0  0
 28 29  2  0  0  0
 28 30  1  0  0  0
 28 31  1  0  0  0
M  CHG  2  30  -1  31  -1
M  END
> <s_m_source_file>
/cbio/jclab/home/rustenburg/PFK/Epik-Ligands/Results/InProgress/FLAVIN MONONUCLEOTIDE/pH_7.0/FLAVIN MONONUCLEOTIDE_pH_7.0-before_epik.mol2

> <i_m_source_file_index>
1

> <r_epik_Ionization_Penalty>
  0.1164

> <r_epik_Ionization_Penalty_Charging>
  0.1164

> <r_epik_Ionization_Penalty_Neutral>
  0.0000

> <r_epik_State_Penalty>
  0.1058

> <r_epik_Charging_Adjusted_Penalty>
0.222159357772949

> <i_epik_Tot_Q>
-2

> <i_epik_Tot_abs_Q>
2

$$$$
FMN
                    3D
 Structure written by MMmdl.
 51 53  0  0  1  0            999 V2000
   33.8640    7.2250   13.5830 N   0  0  0  0  0  0
   33.0310    6.3190   13.0620 C   0  0  0  0  0  0
   33.1850    5.1330   13.2150 O   0  0  0  0  0  0
   31.9740    6.7210   12.1760 N   0  0  0  0  0  0
   31.7880    8.0070   11.8260 C   0  0  0  0  0  0
   30.8990    8.3580   11.0370 O   0  0  0  0  0  0
   32.7360    8.9900   12.3570 C   0  0  0  0  0  0
   32.5590   10.2790   12.1300 N   0  0  0  0  0  0
   33.3450   11.1860   12.7220 C   0  0  0  0  0  0
   33.1220   12.6070   12.4870 C   0  0  0  0  0  0
   33.8140   13.5180   13.2260 C   0  0  0  0  0  0
   33.4890   15.0180   13.1220 C   0  0  0  0  0  0
   34.8930   13.1170   14.0900 C   0  0  0  0  0  0
   35.8120   14.1150   14.7780 C   0  0  0  0  0  0
   35.1530   11.7920   14.2730 C   0  0  0  0  0  0
   34.3820   10.8090   13.6740 C   0  0  0  0  0  0
   34.5570    9.4340   13.8830 N   0  0  0  0  0  0
   33.7860    8.4950   13.2630 C   0  0  0  0  0  0
   35.5540    8.9250   14.8610 C   0  0  0  0  0  0
   34.7890    8.5870   16.1570 C   0  0  2  0  0  0
   34.4170    9.8290   16.7940 O   0  0  0  0  0  0
   35.6810    7.8210   17.1500 C   0  0  2  0  0  0
   36.8490    8.6620   17.4880 O   0  0  0  0  0  0
   36.2120    6.5180   16.5910 C   0  0  2  0  0  0
   35.1490    5.8040   15.9090 O   0  0  0  0  0  0
   36.7120    5.6340   17.7210 C   0  0  0  0  0  0
   35.6040    5.2520   18.5790 O   0  0  0  0  0  0
   35.8370    4.6280   20.0380 P   0  0  0  0  0  0
   36.5850    5.6920   20.8020 O   0  0  0  0  0  0
   36.6820    3.3640   19.8470 O   0  5  0  0  0  0
   34.4360    4.3060   20.5540 O   0  0  0  0  0  0
   31.2870    5.9681   11.7621 H   0  0  0  0  0  0
   32.4170   12.9330   11.7370 H   0  0  0  0  0  0
   32.6472   15.1636   12.4290 H   0  0  0  0  0  0
   34.3704   15.5590   12.7471 H   0  0  0  0  0  0
   33.2170   15.4040   14.1155 H   0  0  0  0  0  0
   35.4840   15.1382   14.5425 H   0  0  0  0  0  0
   36.8429   13.9694   14.4228 H   0  0  0  0  0  0
   35.7736   13.9590   15.8662 H   0  0  0  0  0  0
   35.9820   11.5000   14.9010 H   0  0  0  0  0  0
   36.0416    8.0270   14.4538 H   0  0  0  0  0  0
   36.3115    9.7000   15.0494 H   0  0  0  0  0  0
   33.8814    8.0121   15.9211 H   0  0  0  0  0  0
   33.7730   10.5471   16.2651 H   0  0  0  0  0  0
   35.0849    7.5964   18.0468 H   0  0  0  0  0  0
   36.6996    9.6649   17.9144 H   0  0  0  0  0  0
   37.0059    6.7321   15.8603 H   0  0  0  0  0  0
   34.6399    6.2650   15.0497 H   0  0  0  0  0  0
   37.1740    4.7283   17.3011 H   0  0  0  0  0  0
   37.4570    6.1840   18.3147 H   0  0  0  0  0  0
   33.7175    5.1183   20.7380 H   0  0  0  0  0  0
  1  2  1  0  0  0
  1 18  2  0  0  0
  2  3  2  0  0  0
  2  4  1  0  0  0
  4  5  1  0  0  0
  4 32  1  0  0  0
  5  6  2  0  0  0
  5  7  1  0  0  0
  7  8  2  0  0  0
  7 18  1  0  0  0
  8  9  1  0  0  0
  9 10  2  0  0  0
  9 16  1  0  0  0
 10 11  1  0  0  0
 10 33  1  0  0  0
 11 12  1  0  0  0
 11 13  2  0  0  0
 12 34  1  0  0  0
 12 35  1  0  0  0
 12 36  1  0  0  0
 13 14  1  0  0  0
 13 15  1  0  0  0
 14 37  1  0  0  0
 14 38  1  0  0  0
 14 39  1  0  0  0
 15 16  2  0  0  0
 15 40  1  0  0  0
 16 17  1  0  0  0
 17 18  1  0  0  0
 17 19  1  0  0  0
 19 20  1  0  0  0
 19 41  1  0  0  0
 19 42  1  0  0  0
 20 21  1  0  0  0
 20 22  1  0  0  0
 20 43  1  0  0  0
 21 44  1  0  0  0
 22 23  1  0  0  0
 22 24  1  0  0  0
 22 45  1  0  0  0
 23 46  1  0  0  0
 24 25  1  0  0  0
 24 26  1  0  0  0
 24 47  1  0  0  0
 25 48  1  0  0  0
 26 27  1  0  0  0
 26 49  1  0  0  0
 26 50  1  0  0  0
 27 28  1  0  0  0
 28 29  2  0  0  0
 28 30  1  0  0  0
 28 31  1  0  0  0
 31 51  1  0  0  0
M  CHG  1  30  -1
M  END
> <s_m_source_file>
/cbio/jclab/home/rustenburg/PFK/Epik-Ligands/Results/InProgress/FLAVIN MONONUCLEOTIDE/pH_7.0/FLAVIN MONONUCLEOTIDE_pH_7.0-before_epik.mol2

> <i_m_source_file_index>
1

> <r_epik_Ionization_Penalty>
  1.0249

> <r_epik_Ionization_Penalty_Charging>
  0.0007

> <r_epik_Ionization_Penalty_Neutral>
  1.0242

> <r_epik_State_Penalty>
  1.0751

> <r_epik_Charging_Adjusted_Penalty>
1.0757835134309

> <i_epik_Tot_Q>
-1

> <i_epik_Tot_abs_Q>
1

$$$$
FMN
                    3D
 Structure written by MMmdl.
 49 51  0  0  1  0            999 V2000
   33.8640    7.2250   13.5830 N   0  0  0  0  0  0
   33.0310    6.3190   13.0620 C   0  0  0  0  0  0
   33.1850    5.1330   13.2150 O   0  5  0  0  0  0
   31.9740    6.7210   12.1760 N   0  0  0  0  0  0
   31.7880    8.0070   11.8260 C   0  0  0  0  0  0
   30.8990    8.3580   11.0370 O   0  0  0  0  0  0
   32.7360    8.9900   12.3570 C   0  0  0  0  0  0
   32.5590   10.2790   12.1300 N   0  0  0  0  0  0
   33.3450   11.1860   12.7220 C   0  0  0  0  0  0
   33.1220   12.6070   12.4870 C   0  0  0  0  0  0
   33.8140   13.5180   13.2260 C   0  0  0  0  0  0
   33.4890   15.0180   13.1220 C   0  0  0  0  0  0
   34.8930   13.1170   14.0900 C   0  0  0  0  0  0
   35.8120   14.1150   14.7780 C   0  0  0  0  0  0
   35.1530   11.7920   14.2730 C   0  0  0  0  0  0
   34.3820   10.8090   13.6740 C   0  0  0  0  0  0
   34.5570    9.4340   13.8830 N   0  0  0  0  0  0
   33.7860    8.4950   13.2630 C   0  0  0  0  0  0
   35.5540    8.9250   14.8610 C   0  0  0  0  0  0
   34.7890    8.5870   16.1570 C   0  0  2  0  0  0
   34.4170    9.8290   16.7940 O   0  0  0  0  0  0
   35.6810    7.8210   17.1500 C   0  0  2  0  0  0
   36.8490    8.6620   17.4880 O   0  0  0  0  0  0
   36.2120    6.5180   16.5910 C   0  0  2  0  0  0
   35.1490    5.8040   15.9090 O   0  0  0  0  0  0
   36.7120    5.6340   17.7210 C   0  0  0  0  0  0
   35.6040    5.2520   18.5790 O   0  0  0  0  0  0
   35.8370    4.6280   20.0380 P   0  0  0  0  0  0
   36.5850    5.6920   20.8020 O   0  0  0  0  0  0
   36.6820    3.3640   19.8470 O   0  5  0  0  0  0
   34.4360    4.3060   20.5540 O   0  5  0  0  0  0
   32.4170   12.9330   11.7370 H   0  0  0  0  0  0
   32.6472   15.1636   12.4290 H   0  0  0  0  0  0
   34.3704   15.5590   12.7471 H   0  0  0  0  0  0
   33.2170   15.4040   14.1155 H   0  0  0  0  0  0
   35.4840   15.1382   14.5425 H   0  0  0  0  0  0
   36.8429   13.9694   14.4228 H   0  0  0  0  0  0
   35.7736   13.9590   15.8662 H   0  0  0  0  0  0
   35.9820   11.5000   14.9010 H   0  0  0  0  0  0
   36.0416    8.0270   14.4538 H   0  0  0  0  0  0
   36.3115    9.7000   15.0494 H   0  0  0  0  0  0
   33.8814    8.0121   15.9211 H   0  0  0  0  0  0
   33.7730   10.5471   16.2651 H   0  0  0  0  0  0
   35.0849    7.5964   18.0468 H   0  0  0  0  0  0
   36.6996    9.6649   17.9144 H   0  0  0  0  0  0
   37.0059    6.7321   15.8603 H   0  0  0  0  0  0
   34.6399    6.2650   15.0497 H   0  0  0  0  0  0
   37.1740    4.7283   17.3011 H   0  0  0  0  0  0
   37.4570    6.1840   18.3147 H   0  0  0  0  0  0
  1  2  1  0  0  0
  1 18  2  0  0  0
  2  3  1  0  0  0
  2  4  2  0  0  0
  4  5  1  0  0  0
  5  6  2  0  0  0
  5  7  1  0  0  0
  7  8  2  0  0  0
  7 18  1  0  0  0
  8  9  1  0  0  0
  9 10  2  0  0  0
  9 16  1  0  0  0
 10 11  1  0  0  0
 10 32  1  0  0  0
 11 12  1  0  0  0
 11 13  2  0  0  0
 12 33  1  0  0  0
 12 34  1  0  0  0
 12 35  1  0  0  0
 13 14  1  0  0  0
 13 15  1  0  0  0
 14 36  1  0  0  0
 14 37  1  0  0  0
 14 38  1  0  0  0
 15 16  2  0  0  0
 15 39  1  0  0  0
 16 17  1  0  0  0
 17 18  1  0  0  0
 17 19  1  0  0  0
 19 20  1  0  0  0
 19 40  1  0  0  0
 19 41  1  0  0  0
 20 21  1  0  0  0
 20 22  1  0  0  0
 20 42  1  0  0  0
 21 43  1  0  0  0
 22 23  1  0  0  0
 22 24  1  0  0  0
 22 44  1  0  0  0
 23 45  1  0  0  0
 24 25  1  0  0  0
 24 26  1  0  0  0
 24 46  1  0  0  0
 25 47  1  0  0  0
 26 27  1  0  0  0
 26 48  1  0  0  0
 26 49  1  0  0  0
 27 28  1  0  0  0
 28 29  2  0  0  0
 28 30  1  0  0  0
 28 31  1  0  0  0
M  CHG  3   3  -1  30  -1  31  -1
M  END
> <s_m_source_file>
/cbio/jclab/home/rustenburg/PFK/Epik-Ligands/Results/InProgress/FLAVIN MONONUCLEOTIDE/pH_7.0/FLAVIN MONONUCLEOTIDE_pH_7.0-before_epik.mol2

> <i_m_source_file_index>
1

> <r_epik_Ionization_Penalty>
  4.2337

> <r_epik_Ionization_Penalty_Charging>
  0.1158

> <r_epik_Ionization_Penalty_Neutral>
  4.1179

> <r_epik_State_Penalty>
  4.4992

> <r_epik_Charging_Adjusted_Penalty>
4.6150506972513

> <i_epik_Tot_Q>
-3

> <i_epik_Tot_abs_Q>
3

$$$$
FMN
                    3D
 Structure written by MMmdl.
 50 52  0  0  1  0            999 V2000
   33.8640    7.2250   13.5830 N   0  0  0  0  0  0
   33.0310    6.3190   13.0620 C   0  0  0  0  0  0
   33.1850    5.1330   13.2150 O   0  5  0  0  0  0
   31.9740    6.7210   12.1760 N   0  0  0  0  0  0
   31.7880    8.0070   11.8260 C   0  0  0  0  0  0
   30.8990    8.3580   11.0370 O   0  0  0  0  0  0
   32.7360    8.9900   12.3570 C   0  0  0  0  0  0
   32.5590   10.2790   12.1300 N   0  0  0  0  0  0
   33.3450   11.1860   12.7220 C   0  0  0  0  0  0
   33.1220   12.6070   12.4870 C   0  0  0  0  0  0
   33.8140   13.5180   13.2260 C   0  0  0  0  0  0
   33.4890   15.0180   13.1220 C   0  0  0  0  0  0
   34.8930   13.1170   14.0900 C   0  0  0  0  0  0
   35.8120   14.1150   14.7780 C   0  0  0  0  0  0
   35.1530   11.7920   14.2730 C   0  0  0  0  0  0
   34.3820   10.8090   13.6740 C   0  0  0  0  0  0
   34.5570    9.4340   13.8830 N   0  0  0  0  0  0
   33.7860    8.4950   13.2630 C   0  0  0  0  0  0
   35.5540    8.9250   14.8610 C   0  0  0  0  0  0
   34.7890    8.5870   16.1570 C   0  0  2  0  0  0
   34.4170    9.8290   16.7940 O   0  0  0  0  0  0
   35.6810    7.8210   17.1500 C   0  0  2  0  0  0
   36.8490    8.6620   17.4880 O   0  0  0  0  0  0
   36.2120    6.5180   16.5910 C   0  0  2  0  0  0
   35.1490    5.8040   15.9090 O   0  0  0  0  0  0
   36.7120    5.6340   17.7210 C   0  0  0  0  0  0
   35.6040    5.2520   18.5790 O   0  0  0  0  0  0
   35.8370    4.6280   20.0380 P   0  0  0  0  0  0
   36.5850    5.6920   20.8020 O   0  0  0  0  0  0
   36.6820    3.3640   19.8470 O   0  5  0  0  0  0
   34.4360    4.3060   20.5540 O   0  0  0  0  0  0
   32.4170   12.9330   11.7370 H   0  0  0  0  0  0
   32.6472   15.1636   12.4290 H   0  0  0  0  0  0
   34.3704   15.5590   12.7471 H   0  0  0  0  0  0
   33.2170   15.4040   14.1155 H   0  0  0  0  0  0
   35.4840   15.1382   14.5425 H   0  0  0  0  0  0
   36.8429   13.9694   14.4228 H   0  0  0  0  0  0
   35.7736   13.9590   15.8662 H   0  0  0  0  0  0
   35.9820   11.5000   14.9010 H   0  0  0  0  0  0
   36.0416    8.0270   14.4538 H   0  0  0  0  0  0
   36.3115    9.7000   15.0494 H   0  0  0  0  0  0
   33.8814    8.0121   15.9211 H   0  0  0  0  0  0
   33.7730   10.5471   16.2651 H   0  0  0  0  0  0
   35.0849    7.5964   18.0468 H   0  0  0  0  0  0
   36.6996    9.6649   17.9144 H   0  0  0  0  0  0
   37.0059    6.7321   15.8603 H   0  0  0  0  0  0
   34.6399    6.2650   15.0497 H   0  0  0  0  0  0
   37.1740    4.7283   17.3011 H   0  0  0  0  0  0
   37.4570    6.1840   18.3147 H   0  0  0  0  0  0
   33.7175    5.1183   20.7380 H   0  0  0  0  0  0
  1  2  1  0  0  0
  1 18  2  0  0  0
  2  3  1  0  0  0
  2  4  2  0  0  0
  4  5  1  0  0  0
  5  6  2  0  0  0
  5  7  1  0  0  0
  7  8  2  0  0  0
  7 18  1  0  0  0
  8  9  1  0  0  0
  9 10  2  0  0  0
  9 16  1  0  0  0
 10 11  1  0  0  0
 10 32  1  0  0  0
 11 12  1  0  0  0
 11 13  2  0  0  0
 12 33  1  0  0  0
 12 34  1  0  0  0
 12 35  1  0  0  0
 13 14  1  0  0  0
 13 15  1  0  0  0
 14 36  1  0  0  0
 14 37  1  0  0  0
 14 38  1  0  0  0
 15 16  2  0  0  0
 15 39  1  0  0  0
 16 17  1  0  0  0
 17 18  1  0  0  0
 17 19  1  0  0  0
 19 20  1  0  0  0
 19 40  1  0  0  0
 19 41  1  0  0  0
 20 21  1  0  0  0
 20 22  1  0  0  0
 20 42  1  0  0  0
 21 43  1  0  0  0
 22 23  1  0  0  0
 22 24  1  0  0  0
 22 44  1  0  0  0
 23 45  1  0  0  0
 24 25  1  0  0  0
 24 26  1  0  0  0
 24 46  1  0  0  0
 25 47  1  0  0  0
 26 27  1  0  0  0
 26 48  1  0  0  0
 26 49  1  0  0  0
 27 28  1  0  0  0
 28 29  2  0  0  0
 28 30  1  0  0  0
 28 31  1  0  0  0
 31 50  1  0  0  0
M  CHG  2   3  -1  30  -1
M  END
> <s_m_source_file>
/cbio/jclab/home/rustenburg/PFK/Epik-Ligands/Results/InProgress/FLAVIN MONONUCLEOTIDE/pH_7.0/FLAVIN MONONUCLEOTIDE_pH_7.0-before_epik.mol2

> <i_m_source_file_index>
1

> <r_epik_Ionization_Penalty>
  5.1422

> <r_epik_Ionization_Penalty_Charging>
  0.0002

> <r_epik_Ionization_Penalty_Neutral>
  5.1421

> <r_epik_State_Penalty>
  5.4685

> <r_epik_Charging_Adjusted_Penalty>
5.46867485290925

> <i_epik_Tot_Q>
-2

> <i_epik_Tot_abs_Q>
2

$$$$
