@<TRIPOS>MOLECULE
TLA
   16    15     1     0     0
SMALL
NO_CHARGES

@<TRIPOS>ATOM
      1  O1        33.8570   44.6120   63.5440 O.2       1 TLA         0.0000
      2  O11       33.7530   45.2180   65.6970 O.3       1 TLA         0.0000
      3  C1        33.4540   45.3610   64.4610 C.2       1 TLA         0.0000
      4  C2        32.5220   46.5590   64.2260 C.3       1 TLA         0.0000
      5  O2        31.9470   46.8880   65.5030 O.3       1 TLA         0.0000
      6  C3        31.4590   46.1860   63.1870 C.3       1 TLA         0.0000
      7  O3        30.6160   45.1510   63.6960 O.3       1 TLA         0.0000
      8  C4        30.5240   47.3480   62.8510 C.2       1 TLA         0.0000
      9  O4        29.3690   47.2240   63.3130 O.2       1 TLA         0.0000
     10  O41       30.8960   48.3610   62.1450 O.3       1 TLA         0.0000
     11  H11       33.4460   45.7860   66.3930 H         1 TLA         0.0000
     12  H2        33.1180   47.4250   63.8530 H         1 TLA         0.0000
     13  HA        31.3710   47.6290   65.3580 H         1 TLA         0.0000
     14  H3        31.9590   45.8320   62.2560 H         1 TLA         0.0000
     15  HB        29.9570   44.9200   63.0520 H         1 TLA         0.0000
     16  H41       30.3150   49.0830   61.9360 H         1 TLA         0.0000
@<TRIPOS>BOND
     1    1    3 2
     2    2    3 1
     3    2   11 1
     4    3    4 1
     5    4    5 1
     6    4    6 1
     7    4   12 1
     8    5   13 1
     9    6    7 1
    10    6    8 1
    11    6   14 1
    12    7   15 1
    13    8    9 2
    14    8   10 1
    15   10   16 1
@<TRIPOS>SUBSTRUCTURE
     1 TLA         1 GROUP 0 A     ****
