ACT
  CCTOOLS-0326171057

  7  6  0  0  0  0  0  0  0  0999 V2000
   50.5970   -7.0800   41.5830 C   0  0  0  0  0
   50.9910   -7.2180   42.8610 O   0  0  0  0  0
   51.3930   -7.3340   40.4830 O   0  5  0  0  0
   49.2150   -6.8840   41.1360 C   0  0  0  0  0
   48.8880   -6.7690   40.0760 H   0  0  0  0  0
   48.6200   -7.7240   41.5630 H   0  0  0  0  0
   48.8250   -5.9960   41.6860 H   0  0  0  0  0
  1  2  2  0  0  0
  1  3  1  0  0  0
  1  4  1  0  0  0
  4  5  1  0  0  0
  4  6  1  0  0  0
  4  7  1  0  0  0
M  CHG  1   3  -1
M  END
$$$$
