F6P
                    3D
 Structure written by MMmdl.
 27 27  0  0  1  0            999 V2000
   11.4170    9.1620   27.0210 O   0  0  0  0  0  0
   10.0290    9.5780   26.9550 C   0  0  0  0  0  0
    9.0930    8.3720   27.0220 C   0  0  2  0  0  0
    9.4370    7.4440   25.9940 O   0  0  0  0  0  0
    7.6040    8.8040   26.9280 C   0  0  1  0  0  0
    7.0470    8.5180   25.6720 O   0  0  0  0  0  0
    6.9240    7.9190   27.9540 C   0  0  2  0  0  0
    5.7050    8.3770   28.4860 O   0  0  0  0  0  0
    7.9990    7.7530   28.9850 C   0  0  2  0  0  0
    9.2430    7.6520   28.2660 O   0  0  0  0  0  0
    7.7930    6.5030   29.7570 C   0  0  0  0  0  0
    8.8400    6.5130   30.7050 O   0  0  0  0  0  0
    8.9960    5.4420   31.8830 P   0  0  0  0  0  0
    9.9350    6.0670   32.8520 O   0  0  0  0  0  0
    9.6100    4.2080   31.3380 O   0  5  0  0  0  0
    7.6960    5.1280   32.5030 O   0  5  0  0  0  0
   12.2189    9.9141   26.9847 H   0  0  0  0  0  0
    9.8057   10.2456   27.8003 H   0  0  0  0  0  0
    9.8506   10.1113   26.0096 H   0  0  0  0  0  0
    9.4022    7.7539   24.9391 H   0  0  0  0  0  0
    7.4338    9.8869   27.0199 H   0  0  0  0  0  0
    7.4007    9.0536   24.7787 H   0  0  0  0  0  0
    6.5030    6.9944   27.5322 H   0  0  0  0  0  0
    4.8413    8.5367   27.8238 H   0  0  0  0  0  0
    8.0255    8.6011   29.6850 H   0  0  0  0  0  0
    6.8016    6.5252   30.2331 H   0  0  0  0  0  0
    7.8549    5.6389   29.0791 H   0  0  0  0  0  0
  1  2  1  0  0  0
  1 17  1  0  0  0
  2  3  1  0  0  0
  2 18  1  0  0  0
  2 19  1  0  0  0
  3  4  1  0  0  0
  3  5  1  0  0  0
  3 10  1  0  0  0
  4 20  1  0  0  0
  5  6  1  0  0  0
  5  7  1  0  0  0
  5 21  1  0  0  0
  6 22  1  0  0  0
  7  8  1  0  0  0
  7  9  1  0  0  0
  7 23  1  0  0  0
  8 24  1  0  0  0
  9 10  1  0  0  0
  9 11  1  0  0  0
  9 25  1  0  0  0
 11 12  1  0  0  0
 11 26  1  0  0  0
 11 27  1  0  0  0
 12 13  1  0  0  0
 13 14  2  0  0  0
 13 15  1  0  0  0
 13 16  1  0  0  0
M  CHG  2  15  -1  16  -1
M  END
> <s_m_source_file>
/cbio/jclab/home/rustenburg/PFK/Epik-Ligands/Results/InProgress/FRUCTOSE-6-PHOSPHATE/pH_7.4/FRUCTOSE-6-PHOSPHATE_pH_7.4-before_epik.mol2

> <i_m_source_file_index>
1

> <r_epik_Ionization_Penalty>
  0.0424

> <r_epik_Ionization_Penalty_Charging>
  0.0423

> <r_epik_Ionization_Penalty_Neutral>
  0.0000

> <r_epik_State_Penalty>
  0.0358

> <r_epik_Charging_Adjusted_Penalty>
0.0781052563765499

> <i_epik_Tot_Q>
-2

> <i_epik_Tot_abs_Q>
2

$$$$
F6P
                    3D
 Structure written by MMmdl.
 28 28  0  0  1  0            999 V2000
   11.4170    9.1620   27.0210 O   0  0  0  0  0  0
   10.0290    9.5780   26.9550 C   0  0  0  0  0  0
    9.0930    8.3720   27.0220 C   0  0  2  0  0  0
    9.4370    7.4440   25.9940 O   0  0  0  0  0  0
    7.6040    8.8040   26.9280 C   0  0  1  0  0  0
    7.0470    8.5180   25.6720 O   0  0  0  0  0  0
    6.9240    7.9190   27.9540 C   0  0  2  0  0  0
    5.7050    8.3770   28.4860 O   0  0  0  0  0  0
    7.9990    7.7530   28.9850 C   0  0  2  0  0  0
    9.2430    7.6520   28.2660 O   0  0  0  0  0  0
    7.7930    6.5030   29.7570 C   0  0  0  0  0  0
    8.8400    6.5130   30.7050 O   0  0  0  0  0  0
    8.9960    5.4420   31.8830 P   0  0  0  0  0  0
    9.9350    6.0670   32.8520 O   0  0  0  0  0  0
    9.6100    4.2080   31.3380 O   0  5  0  0  0  0
    7.6960    5.1280   32.5030 O   0  0  0  0  0  0
   12.2189    9.9141   26.9847 H   0  0  0  0  0  0
    9.8057   10.2456   27.8003 H   0  0  0  0  0  0
    9.8506   10.1113   26.0096 H   0  0  0  0  0  0
    9.4022    7.7539   24.9391 H   0  0  0  0  0  0
    7.4338    9.8869   27.0199 H   0  0  0  0  0  0
    7.4007    9.0536   24.7787 H   0  0  0  0  0  0
    6.5030    6.9944   27.5322 H   0  0  0  0  0  0
    4.8413    8.5367   27.8238 H   0  0  0  0  0  0
    8.0255    8.6011   29.6850 H   0  0  0  0  0  0
    6.8016    6.5252   30.2331 H   0  0  0  0  0  0
    7.8549    5.6389   29.0791 H   0  0  0  0  0  0
    7.0973    5.9291   32.9611 H   0  0  0  0  0  0
  1  2  1  0  0  0
  1 17  1  0  0  0
  2  3  1  0  0  0
  2 18  1  0  0  0
  2 19  1  0  0  0
  3  4  1  0  0  0
  3  5  1  0  0  0
  3 10  1  0  0  0
  4 20  1  0  0  0
  5  6  1  0  0  0
  5  7  1  0  0  0
  5 21  1  0  0  0
  6 22  1  0  0  0
  7  8  1  0  0  0
  7  9  1  0  0  0
  7 23  1  0  0  0
  8 24  1  0  0  0
  9 10  1  0  0  0
  9 11  1  0  0  0
  9 25  1  0  0  0
 11 12  1  0  0  0
 11 26  1  0  0  0
 11 27  1  0  0  0
 12 13  1  0  0  0
 13 14  2  0  0  0
 13 15  1  0  0  0
 13 16  1  0  0  0
 16 28  1  0  0  0
M  CHG  1  15  -1
M  END
> <s_m_source_file>
/cbio/jclab/home/rustenburg/PFK/Epik-Ligands/Results/InProgress/FRUCTOSE-6-PHOSPHATE/pH_7.4/FRUCTOSE-6-PHOSPHATE_pH_7.4-before_epik.mol2

> <i_m_source_file_index>
1

> <r_epik_Ionization_Penalty>
  1.5844

> <r_epik_Ionization_Penalty_Charging>
  0.0000

> <r_epik_Ionization_Penalty_Neutral>
  1.5844

> <r_epik_State_Penalty>
  1.6812

> <r_epik_Charging_Adjusted_Penalty>
1.68122199313569

> <i_epik_Tot_Q>
-1

> <i_epik_Tot_abs_Q>
1

$$$$
