COA
  CCTOOLS-0326171052

 84 86  0  0  1  0  0  0  0  0999 V2000
   88.6040  -84.6940  -15.4010 N   0  0  0  0  0
   88.5170  -85.3620  -16.6140 C   0  0  0  0  0
   88.4530  -84.8110  -17.8270 N   0  0  0  0  0
   88.4890  -83.4640  -17.7910 C   0  0  0  0  0
   88.5780  -82.6230  -16.6440 C   0  0  0  0  0
   88.6370  -83.3150  -15.3450 C   0  0  0  0  0
   88.7190  -82.6940  -14.2090 N   0  0  0  0  0
   88.5930  -81.3110  -16.9840 N   0  0  0  0  0
   88.5140  -81.2930  -18.3130 C   0  0  0  0  0
   88.4440  -82.5690  -18.8600 N   0  0  0  0  0
   88.2830  -82.8930  -20.3050 C   0  0  0  0  0
   89.1690  -84.0030  -20.8100 C   0  0  0  0  0
   90.4930  -83.5370  -21.0680 O   0  0  0  0  0
   88.4470  -84.3520  -22.1030 C   0  0  0  0  0
   88.5340  -83.3380  -23.0200 O   0  0  0  0  0
   88.5670  -83.7630  -24.6320 P   0  0  0  0  0
   89.7760  -84.7730  -24.8120 O   0  0  0  0  0
   88.8680  -82.4540  -25.4620 O   0  0  0  0  0
   87.1870  -84.4450  -25.0050 O   0  0  0  0  0
   86.9970  -84.4910  -21.5560 C   0  0  0  0  0
   86.9570  -83.4610  -20.4760 O   0  0  0  0  0
   86.5780  -85.7930  -20.9340 C   0  0  0  0  0
   86.6630  -86.7650  -22.0150 O   0  0  0  0  0
   85.5120  -87.8990  -22.1320 P   0  0  0  0  0
   85.9730  -88.8420  -23.2310 O   0  0  0  0  0
   84.1350  -87.3250  -22.2760 O   0  0  0  0  0
   85.5440  -88.6720  -20.8060 O   0  0  0  0  0
   86.5260  -89.8380  -20.2320 P   0  0  0  0  0
   85.9410  -91.2220  -20.3870 O   0  0  0  0  0
   87.9130  -89.7660  -20.8150 O   0  0  0  0  0
   86.6310  -89.4110  -18.6740 O   0  0  0  0  0
   85.9600  -88.6360  -16.5360 C   0  0  0  0  0
   85.5210  -89.4080  -17.8120 C   0  0  0  0  0
   87.4920  -88.7900  -16.2100 C   0  0  0  0  0
   85.6020  -87.2100  -16.9500 C   0  0  0  0  0
   85.1850  -89.1370  -15.2540 C   0  0  0  0  0
   85.5020  -88.2660  -14.1280 O   0  0  0  0  0
   83.6680  -89.1660  -15.4160 C   0  0  0  0  0
   83.0890  -90.0690  -16.2240 O   0  0  0  0  0
   82.9960  -88.2770  -14.7190 N   0  0  0  0  0
   81.5360  -88.1930  -14.7460 C   0  0  0  0  0
   81.0500  -88.2840  -13.2980 C   0  0  0  0  0
   81.4830  -89.5720  -12.6330 C   0  0  0  0  0
   81.5080  -90.7220  -13.2480 O   0  0  0  0  0
   81.8280  -89.4210  -11.3700 N   0  0  0  0  0
   82.3050  -90.5540  -10.4610 C   0  0  0  0  0
   81.0660  -91.3020  -10.0080 C   0  0  0  0  0
   81.4370  -92.6410   -8.8190 S   0  0  0  0  0
   88.4990  -86.4230  -16.5720 H   0  0  0  0  0
   88.7590  -83.2120  -13.3610 H   0  0  0  0  0
   88.7420  -81.7000  -14.1860 H   0  0  0  0  0
   88.5050  -80.4030  -18.8910 H   0  0  0  0  0
   88.5060  -81.9570  -20.8370 H   0  0  0  0  0
   89.3040  -84.8410  -20.1110 H   0  0  0  0  0
   91.0990  -84.3110  -21.1860 H   0  0  0  0  0
   88.8400  -85.2310  -22.6340 H   0  0  0  0  0
   88.8870  -82.6960  -26.3800 H   0  0  0  0  0
   87.2870  -85.4300  -24.9780 H   0  0  0  0  0
   86.3140  -84.3960  -22.4130 H   0  0  0  0  0
   87.2570  -86.0660  -20.1130 H   0  0  0  0  0
   85.5680  -85.7410  -20.5010 H   0  0  0  0  0
   83.4600  -87.9900  -22.3450 H   0  0  0  0  0
   88.4860  -90.4460  -20.4800 H   0  0  0  0  0
   84.6700  -88.9010  -18.2890 H   0  0  0  0  0
   85.2010  -90.4320  -17.5690 H   0  0  0  0  0
   87.7500  -89.8580  -16.1550 H   0  0  0  0  0
   88.0850  -88.3100  -17.0020 H   0  0  0  0  0
   87.7110  -88.3100  -15.2450 H   0  0  0  0  0
   84.5080  -87.1010  -16.9820 H   0  0  0  0  0
   86.0200  -86.5010  -16.2210 H   0  0  0  0  0
   86.0200  -87.0020  -17.9460 H   0  0  0  0  0
   85.5160  -90.1720  -15.0850 H   0  0  0  0  0
   84.6630  -87.9450  -13.7120 H   0  0  0  0  0
   83.5010  -87.6350  -14.1500 H   0  0  0  0  0
   81.2220  -87.2370  -15.1890 H   0  0  0  0  0
   81.1100  -89.0060  -15.3520 H   0  0  0  0  0
   81.4620  -87.4360  -12.7310 H   0  0  0  0  0
   79.9500  -88.2600  -13.3070 H   0  0  0  0  0
   81.7740  -88.5070  -10.9810 H   0  0  0  0  0
   82.9730  -91.2290  -11.0160 H   0  0  0  0  0
   82.8660  -90.1610   -9.6000 H   0  0  0  0  0
   80.3800  -90.5880   -9.5290 H   0  0  0  0  0
   80.6170  -91.7670  -10.8980 H   0  0  0  0  0
   80.6610  -93.1100   -8.5350 H   0  0  0  0  0
  1  2  1  0  0  0
  1  6  2  0  0  0
  2  3  2  0  0  0
  2 49  1  0  0  0
  3  4  1  0  0  0
  4  5  2  0  0  0
  4 10  1  0  0  0
  5  6  1  0  0  0
  5  8  1  0  0  0
  6  7  1  0  0  0
  7 50  1  0  0  0
  7 51  1  0  0  0
  8  9  2  0  0  0
  9 10  1  0  0  0
  9 52  1  0  0  0
 10 11  1  0  0  0
 11 12  1  0  0  0
 11 21  1  0  0  0
 11 53  1  0  0  0
 12 13  1  0  0  0
 12 14  1  0  0  0
 12 54  1  0  0  0
 13 55  1  0  0  0
 14 15  1  0  0  0
 14 20  1  0  0  0
 14 56  1  0  0  0
 15 16  1  0  0  0
 16 17  2  0  0  0
 16 18  1  0  0  0
 16 19  1  0  0  0
 18 57  1  0  0  0
 19 58  1  0  0  0
 20 21  1  0  0  0
 20 22  1  0  0  0
 20 59  1  0  0  0
 22 23  1  0  0  0
 22 60  1  0  0  0
 22 61  1  0  0  0
 23 24  1  0  0  0
 24 25  2  0  0  0
 24 26  1  0  0  0
 24 27  1  0  0  0
 26 62  1  0  0  0
 27 28  1  0  0  0
 28 29  2  0  0  0
 28 30  1  0  0  0
 28 31  1  0  0  0
 30 63  1  0  0  0
 31 33  1  0  0  0
 32 33  1  0  0  0
 32 34  1  0  0  0
 32 35  1  0  0  0
 32 36  1  0  0  0
 33 64  1  0  0  0
 33 65  1  0  0  0
 34 66  1  0  0  0
 34 67  1  0  0  0
 34 68  1  0  0  0
 35 69  1  0  0  0
 35 70  1  0  0  0
 35 71  1  0  0  0
 36 37  1  0  0  0
 36 38  1  0  0  0
 36 72  1  0  0  0
 37 73  1  0  0  0
 38 39  2  0  0  0
 38 40  1  0  0  0
 40 41  1  0  0  0
 40 74  1  0  0  0
 41 42  1  0  0  0
 41 75  1  0  0  0
 41 76  1  0  0  0
 42 43  1  0  0  0
 42 77  1  0  0  0
 42 78  1  0  0  0
 43 44  2  0  0  0
 43 45  1  0  0  0
 45 46  1  0  0  0
 45 79  1  0  0  0
 46 47  1  0  0  0
 46 80  1  0  0  0
 46 81  1  0  0  0
 47 48  1  0  0  0
 47 82  1  0  0  0
 47 83  1  0  0  0
 48 84  1  0  0  0
M  END
$$$$
