@<TRIPOS>MOLECULE
ADP
39   41    1
SMALL
USER_CHARGES


@<TRIPOS>ATOM
      1 PB         44.6690    2.9280   38.5560 P.3       1 ADP         0.0000 
      2 O1B        46.0210    3.5080   38.3170 O.co2     1 ADP         0.0000 
      3 O2B        43.7090    3.8120   37.9050 O.co2     1 ADP         0.0000 
      4 O3B        44.4590    1.4490   38.3820 O.co2     1 ADP         0.0000 
      5 PA         43.2300    2.9550   41.1100 P.3       1 ADP         0.0000 
      6 O1A        41.9750    3.4970   40.5730 O.co2     1 ADP         0.0000 
      7 O2A        42.9620    1.5010   41.4010 O.co2     1 ADP         0.0000 
      8 O3A        44.5220    3.2100   40.2120 O.3       1 ADP         0.0000 
      9 O5'        43.4620    3.8320   42.4070 O.3       1 ADP         0.0000 
     10 C5'        43.7350    5.2460   42.3350 C.3       1 ADP         0.0000 
     11 C4'        43.0950    5.8100   43.6260 C.3       1 ADP         0.0000 
     12 O4'        43.7640    5.2610   44.7790 O.3       1 ADP         0.0000 
     13 C3'        43.3370    7.3250   43.6170 C.3       1 ADP         0.0000 
     14 O3'        42.0560    7.9880   43.5600 O.3       1 ADP         0.0000 
     15 C2'        43.9460    7.5930   45.0830 C.3       1 ADP         0.0000 
     16 O2'        43.5540    8.7260   45.8770 O.3       1 ADP         0.0000 
     17 C1'        43.6130    6.2750   45.8130 C.3       1 ADP         0.0000 
     18 N9         44.3750    5.7810   46.9910 N.pl3     1 ADP         0.0000 
     19 C8         45.7110    5.4860   47.0620 C.ar      1 ADP         0.0000 
     20 N7         46.2020    5.3790   48.2820 N.2       1 ADP         0.0000 
     21 C5         45.0670    5.5970   49.0640 C.ar      1 ADP         0.0000 
     22 C6         44.8830    5.6230   50.4990 C.ar      1 ADP         0.0000 
     23 N6         45.9120    5.4330   51.3250 N.pl3     1 ADP         0.0000 
     24 N1         43.6260    5.8520   50.8960 N.ar      1 ADP         0.0000 
     25 C2         42.5900    6.0760   50.0670 C.ar      1 ADP         0.0000 
     26 N3         42.6750    6.0670   48.7350 N.ar      1 ADP         0.0000 
     27 C4         43.9510    5.8210   48.3040 C.ar      1 ADP         0.0000 
     28 H5'1       44.8225    5.4083   42.3038 H         1 ADP         0.0000 
     29 H5'2       43.2759    5.6623   41.4262 H         1 ADP         0.0000 
     30 H4'        42.0346    5.5352   43.7265 H         1 ADP         0.0000 
     31 H3'        43.9002    7.6848   42.7433 H         1 ADP         0.0000 
     32 HO3'       41.4519    7.9395   42.6420 H         1 ADP         0.0000 
     33 H2'        44.9867    7.9464   45.0378 H         1 ADP         0.0000 
     34 HO2'       43.7218    9.7459   45.5006 H         1 ADP         0.0000 
     35 H1'        42.6269    6.4254   46.2768 H         1 ADP         0.0000 
     36 H8         46.3580    5.3410   46.1810 H         1 ADP         0.0000 
     37 HN61       46.9174    5.2500   50.9180 H         1 ADP         0.0000 
     38 HN62       45.7556    5.4592   52.4135 H         1 ADP         0.0000 
     39 H2         41.6010    6.2810   50.5100 H         1 ADP         0.0000 
@<TRIPOS>BOND
     1    1    2 2    
     2    1    3 1    
     3    1    4 1    
     4    1    8 1    
     5    5    6 2    
     6    5    7 1    
     7    5    8 1    
     8    5    9 1    
     9    9   10 1    
    10   10   11 1    
    11   10   28 1    
    12   10   29 1    
    13   11   12 1    
    14   11   13 1    
    15   11   30 1    
    16   12   17 1    
    17   13   14 1    
    18   13   15 1    
    19   13   31 1    
    20   14   32 1    
    21   15   16 1    
    22   15   17 1    
    23   15   33 1    
    24   16   34 1    
    25   17   18 1    
    26   17   35 1    
    27   18   19 ar   
    28   18   27 ar   
    29   19   20 ar   
    30   19   36 1    
    31   20   21 ar   
    32   21   22 ar   
    33   21   27 ar   
    34   22   23 1    
    35   22   24 ar   
    36   23   37 1    
    37   23   38 1    
    38   24   25 ar   
    39   25   26 ar   
    40   25   39 1    
    41   26   27 ar   
@<TRIPOS>SUBSTRUCTURE
     1 ADP         1 GROUP             0       ****    0 ROOT    
@<TRIPOS>MOLECULE
ADP
40   42    1
SMALL
USER_CHARGES


@<TRIPOS>ATOM
      1 PB         44.6690    2.9280   38.5560 P.3       1 ADP         0.0000 
      2 O1B        46.0210    3.5080   38.3170 O.co2     1 ADP         0.0000 
      3 O2B        43.7090    3.8120   37.9050 O.co2     1 ADP         0.0000 
      4 O3B        44.4590    1.4490   38.3820 O.3       1 ADP         0.0000 
      5 PA         43.2300    2.9550   41.1100 P.3       1 ADP         0.0000 
      6 O1A        41.9750    3.4970   40.5730 O.co2     1 ADP         0.0000 
      7 O2A        42.9620    1.5010   41.4010 O.co2     1 ADP         0.0000 
      8 O3A        44.5220    3.2100   40.2120 O.3       1 ADP         0.0000 
      9 O5'        43.4620    3.8320   42.4070 O.3       1 ADP         0.0000 
     10 C5'        43.7350    5.2460   42.3350 C.3       1 ADP         0.0000 
     11 C4'        43.0950    5.8100   43.6260 C.3       1 ADP         0.0000 
     12 O4'        43.7640    5.2610   44.7790 O.3       1 ADP         0.0000 
     13 C3'        43.3370    7.3250   43.6170 C.3       1 ADP         0.0000 
     14 O3'        42.0560    7.9880   43.5600 O.3       1 ADP         0.0000 
     15 C2'        43.9460    7.5930   45.0830 C.3       1 ADP         0.0000 
     16 O2'        43.5540    8.7260   45.8770 O.3       1 ADP         0.0000 
     17 C1'        43.6130    6.2750   45.8130 C.3       1 ADP         0.0000 
     18 N9         44.3750    5.7810   46.9910 N.pl3     1 ADP         0.0000 
     19 C8         45.7110    5.4860   47.0620 C.ar      1 ADP         0.0000 
     20 N7         46.2020    5.3790   48.2820 N.2       1 ADP         0.0000 
     21 C5         45.0670    5.5970   49.0640 C.ar      1 ADP         0.0000 
     22 C6         44.8830    5.6230   50.4990 C.ar      1 ADP         0.0000 
     23 N6         45.9120    5.4330   51.3250 N.pl3     1 ADP         0.0000 
     24 N1         43.6260    5.8520   50.8960 N.ar      1 ADP         0.0000 
     25 C2         42.5900    6.0760   50.0670 C.ar      1 ADP         0.0000 
     26 N3         42.6750    6.0670   48.7350 N.ar      1 ADP         0.0000 
     27 C4         43.9510    5.8210   48.3040 C.ar      1 ADP         0.0000 
     28 HOB3       44.5050    1.0013   37.3783 H         1 ADP         0.0000 
     29 H5'1       44.8225    5.4083   42.3038 H         1 ADP         0.0000 
     30 H5'2       43.2759    5.6623   41.4262 H         1 ADP         0.0000 
     31 H4'        42.0346    5.5352   43.7265 H         1 ADP         0.0000 
     32 H3'        43.9002    7.6848   42.7433 H         1 ADP         0.0000 
     33 HO3'       41.4519    7.9395   42.6420 H         1 ADP         0.0000 
     34 H2'        44.9867    7.9464   45.0378 H         1 ADP         0.0000 
     35 HO2'       43.7218    9.7459   45.5006 H         1 ADP         0.0000 
     36 H1'        42.6269    6.4254   46.2768 H         1 ADP         0.0000 
     37 H8         46.3580    5.3410   46.1810 H         1 ADP         0.0000 
     38 HN61       46.9174    5.2500   50.9180 H         1 ADP         0.0000 
     39 HN62       45.7556    5.4592   52.4135 H         1 ADP         0.0000 
     40 H2         41.6010    6.2810   50.5100 H         1 ADP         0.0000 
@<TRIPOS>BOND
     1    1    2 2    
     2    1    3 1    
     3    1    4 1    
     4    1    8 1    
     5    4   28 1    
     6    5    6 2    
     7    5    7 1    
     8    5    8 1    
     9    5    9 1    
    10    9   10 1    
    11   10   11 1    
    12   10   29 1    
    13   10   30 1    
    14   11   12 1    
    15   11   13 1    
    16   11   31 1    
    17   12   17 1    
    18   13   14 1    
    19   13   15 1    
    20   13   32 1    
    21   14   33 1    
    22   15   16 1    
    23   15   17 1    
    24   15   34 1    
    25   16   35 1    
    26   17   18 1    
    27   17   36 1    
    28   18   19 ar   
    29   18   27 ar   
    30   19   20 ar   
    31   19   37 1    
    32   20   21 ar   
    33   21   22 ar   
    34   21   27 ar   
    35   22   23 1    
    36   22   24 ar   
    37   23   38 1    
    38   23   39 1    
    39   24   25 ar   
    40   25   26 ar   
    41   25   40 1    
    42   26   27 ar   
@<TRIPOS>SUBSTRUCTURE
     1 ADP         1 GROUP             0       ****    0 ROOT    
@<TRIPOS>MOLECULE
ADP
40   42    1
SMALL
USER_CHARGES


@<TRIPOS>ATOM
      1 PB         44.6690    2.9280   38.5560 P.3       1 ADP         0.0000 
      2 O1B        46.0210    3.5080   38.3170 O.co2     1 ADP         0.0000 
      3 O2B        43.7090    3.8120   37.9050 O.co2     1 ADP         0.0000 
      4 O3B        44.4590    1.4490   38.3820 O.co2     1 ADP         0.0000 
      5 PA         43.2300    2.9550   41.1100 P.3       1 ADP         0.0000 
      6 O1A        41.9750    3.4970   40.5730 O.2       1 ADP         0.0000 
      7 O2A        42.9620    1.5010   41.4010 O.3       1 ADP         0.0000 
      8 O3A        44.5220    3.2100   40.2120 O.3       1 ADP         0.0000 
      9 O5'        43.4620    3.8320   42.4070 O.3       1 ADP         0.0000 
     10 C5'        43.7350    5.2460   42.3350 C.3       1 ADP         0.0000 
     11 C4'        43.0950    5.8100   43.6260 C.3       1 ADP         0.0000 
     12 O4'        43.7640    5.2610   44.7790 O.3       1 ADP         0.0000 
     13 C3'        43.3370    7.3250   43.6170 C.3       1 ADP         0.0000 
     14 O3'        42.0560    7.9880   43.5600 O.3       1 ADP         0.0000 
     15 C2'        43.9460    7.5930   45.0830 C.3       1 ADP         0.0000 
     16 O2'        43.5540    8.7260   45.8770 O.3       1 ADP         0.0000 
     17 C1'        43.6130    6.2750   45.8130 C.3       1 ADP         0.0000 
     18 N9         44.3750    5.7810   46.9910 N.pl3     1 ADP         0.0000 
     19 C8         45.7110    5.4860   47.0620 C.ar      1 ADP         0.0000 
     20 N7         46.2020    5.3790   48.2820 N.2       1 ADP         0.0000 
     21 C5         45.0670    5.5970   49.0640 C.ar      1 ADP         0.0000 
     22 C6         44.8830    5.6230   50.4990 C.ar      1 ADP         0.0000 
     23 N6         45.9120    5.4330   51.3250 N.pl3     1 ADP         0.0000 
     24 N1         43.6260    5.8520   50.8960 N.ar      1 ADP         0.0000 
     25 C2         42.5900    6.0760   50.0670 C.ar      1 ADP         0.0000 
     26 N3         42.6750    6.0670   48.7350 N.ar      1 ADP         0.0000 
     27 C4         43.9510    5.8210   48.3040 C.ar      1 ADP         0.0000 
     28 HOA2       42.7861    0.7978   40.5736 H         1 ADP         0.0000 
     29 H5'1       44.8225    5.4083   42.3038 H         1 ADP         0.0000 
     30 H5'2       43.2759    5.6623   41.4262 H         1 ADP         0.0000 
     31 H4'        42.0346    5.5352   43.7265 H         1 ADP         0.0000 
     32 H3'        43.9002    7.6848   42.7433 H         1 ADP         0.0000 
     33 HO3'       41.4519    7.9395   42.6420 H         1 ADP         0.0000 
     34 H2'        44.9867    7.9464   45.0378 H         1 ADP         0.0000 
     35 HO2'       43.7218    9.7459   45.5006 H         1 ADP         0.0000 
     36 H1'        42.6269    6.4254   46.2768 H         1 ADP         0.0000 
     37 H8         46.3580    5.3410   46.1810 H         1 ADP         0.0000 
     38 HN61       46.9174    5.2500   50.9180 H         1 ADP         0.0000 
     39 HN62       45.7556    5.4592   52.4135 H         1 ADP         0.0000 
     40 H2         41.6010    6.2810   50.5100 H         1 ADP         0.0000 
@<TRIPOS>BOND
     1    1    2 2    
     2    1    3 1    
     3    1    4 1    
     4    1    8 1    
     5    5    6 2    
     6    5    7 1    
     7    5    8 1    
     8    5    9 1    
     9    7   28 1    
    10    9   10 1    
    11   10   11 1    
    12   10   29 1    
    13   10   30 1    
    14   11   12 1    
    15   11   13 1    
    16   11   31 1    
    17   12   17 1    
    18   13   14 1    
    19   13   15 1    
    20   13   32 1    
    21   14   33 1    
    22   15   16 1    
    23   15   17 1    
    24   15   34 1    
    25   16   35 1    
    26   17   18 1    
    27   17   36 1    
    28   18   19 ar   
    29   18   27 ar   
    30   19   20 ar   
    31   19   37 1    
    32   20   21 ar   
    33   21   22 ar   
    34   21   27 ar   
    35   22   23 1    
    36   22   24 ar   
    37   23   38 1    
    38   23   39 1    
    39   24   25 ar   
    40   25   26 ar   
    41   25   40 1    
    42   26   27 ar   
@<TRIPOS>SUBSTRUCTURE
     1 ADP         1 GROUP             0       ****    0 ROOT    
