MAL
                    3D
 Structure written by MMmdl.
 45 46  0  0  1  0            999 V2000
   81.3110   64.7430   44.7180 C   0  0  1  0  0  0
   80.6630   63.5580   45.4040 C   0  0  1  0  0  0
   81.1960   62.2940   44.7900 C   0  0  2  0  0  0
   80.8750   62.3250   43.3080 C   0  0  1  0  0  0
   81.5630   63.5230   42.6670 C   0  0  1  0  0  0
   81.2720   63.6930   41.2010 C   0  0  0  0  0  0
   82.6920   64.6720   44.9600 O   0  0  0  0  0  0
   80.9470   63.5360   46.7970 O   0  0  0  0  0  0
   80.5790   61.1520   45.3770 O   0  0  0  0  0  0
   81.3410   61.1500   42.6620 O   0  0  0  0  0  0
   81.1580   64.7380   43.3070 O   0  0  0  0  0  0
   82.1520   64.6320   40.5650 O   0  0  0  0  0  0
   85.4010   67.4610   46.5160 C   0  0  1  0  0  0
   84.4510   66.7680   47.4730 C   0  0  1  0  0  0
   83.7780   65.5300   46.9150 C   0  0  2  0  0  0
   83.2740   65.8600   45.5200 C   0  0  1  0  0  0
   84.4050   66.3270   44.6070 C   0  0  1  0  0  0
   83.8530   66.7020   43.2520 C   0  0  0  0  0  0
   86.7270   67.0920   46.6550 O   0  0  0  0  0  0
   85.0120   66.5480   48.7770 O   0  0  0  0  0  0
   82.7470   65.0470   47.7800 O   0  0  0  0  0  0
   84.9780   67.5220   45.1480 O   0  0  0  0  0  0
   84.4550   65.8750   42.2450 O   0  0  0  0  0  0
   80.8769   65.6868   45.0795 H   0  0  0  0  0  0
   79.5678   63.6335   45.3345 H   0  0  0  0  0  0
   82.2709   62.1822   44.9953 H   0  0  0  0  0  0
   79.7845   62.3309   43.1638 H   0  0  0  0  0  0
   82.6437   63.3770   42.8115 H   0  0  0  0  0  0
   81.3864   62.7257   40.6899 H   0  0  0  0  0  0
   80.2420   64.0566   41.0714 H   0  0  0  0  0  0
   80.6373   64.3770   47.4348 H   0  0  0  0  0  0
   80.6971   60.9551   46.4528 H   0  0  0  0  0  0
   80.9663   60.1645   42.9756 H   0  0  0  0  0  0
   82.0441   64.8469   39.4916 H   0  0  0  0  0  0
   85.4508   68.5214   46.8041 H   0  0  0  0  0  0
   83.6523   67.4971   47.6741 H   0  0  0  0  0  0
   84.4621   64.6689   46.8928 H   0  0  0  0  0  0
   82.4965   66.6360   45.5776 H   0  0  0  0  0  0
   85.1837   65.5532   44.5375 H   0  0  0  0  0  0
   82.7632   66.5528   43.2460 H   0  0  0  0  0  0
   84.0796   67.7580   43.0432 H   0  0  0  0  0  0
   87.1726   67.0089   47.6573 H   0  0  0  0  0  0
   85.5306   67.3664   49.2978 H   0  0  0  0  0  0
   82.9841   64.7727   48.8185 H   0  0  0  0  0  0
   84.1753   66.0028   41.1889 H   0  0  0  0  0  0
  1  2  1  0  0  0
  1  7  1  0  0  0
  1 11  1  0  0  0
  1 24  1  0  0  0
  2  3  1  0  0  0
  2  8  1  0  0  0
  2 25  1  0  0  0
  3  4  1  0  0  0
  3  9  1  0  0  0
  3 26  1  0  0  0
  4  5  1  0  0  0
  4 10  1  0  0  0
  4 27  1  0  0  0
  5  6  1  0  0  0
  5 11  1  0  0  0
  5 28  1  0  0  0
  6 12  1  0  0  0
  6 29  1  0  0  0
  6 30  1  0  0  0
  7 16  1  0  0  0
  8 31  1  0  0  0
  9 32  1  0  0  0
 10 33  1  0  0  0
 12 34  1  0  0  0
 13 14  1  0  0  0
 13 19  1  0  0  0
 13 22  1  0  0  0
 13 35  1  0  0  0
 14 15  1  0  0  0
 14 20  1  0  0  0
 14 36  1  0  0  0
 15 16  1  0  0  0
 15 21  1  0  0  0
 15 37  1  0  0  0
 16 17  1  0  0  0
 16 38  1  0  0  0
 17 18  1  0  0  0
 17 22  1  0  0  0
 17 39  1  0  0  0
 18 23  1  0  0  0
 18 40  1  0  0  0
 18 41  1  0  0  0
 19 42  1  0  0  0
 20 43  1  0  0  0
 21 44  1  0  0  0
 23 45  1  0  0  0
M  END
> <s_m_source_file>
/cbio/jclab/home/rustenburg/PFK/Epik-Ligands/Results/InProgress/MALTOSE/pH_7.4/MALTOSE_pH_7.4-before_epik.mol2

> <i_m_source_file_index>
1

> <r_lp_tautomer_probability>
1

> <r_epik_Ionization_Penalty>
  0.0000

> <r_epik_Ionization_Penalty_Charging>
  0.0000

> <r_epik_Ionization_Penalty_Neutral>
  0.0000

> <r_epik_State_Penalty>
 -0.0000

> <r_epik_Charging_Adjusted_Penalty>
0

> <i_epik_Tot_Q>
0

> <i_epik_Tot_abs_Q>
0

> <s_epik_Chemistry_Notes>
This compound contains an acetal/aminal-like group ( X-CH(R)-Y where X, Y are N, S, or O) that may be acid/base labile, releasing an aldehyde.

$$$$
