CIT
                    3D
 Structure written by MMmdl.
 21 20  0  0  1  0            999 V2000
   68.4180   48.3850   33.0230 C   0  0  0  0  0  0
   68.8200   47.5710   32.3980 O   0  0  0  0  0  0
   68.6370   49.5560   32.9780 O   0  0  0  0  0  0
   67.4830   48.0690   34.2230 C   0  0  0  0  0  0
   65.9350   48.1150   34.0490 C   0  0  0  0  0  0
   65.4890   49.4220   33.5830 O   0  0  0  0  0  0
   65.5390   47.1450   32.9120 C   0  0  0  0  0  0
   64.0420   46.9920   32.7920 C   0  0  0  0  0  0
   63.6500   46.2810   31.7410 O   0  0  0  0  0  0
   63.2220   47.3690   33.5850 O   0  0  0  0  0  0
   65.2600   47.7760   35.3540 C   0  0  0  0  0  0
   65.3250   46.5580   35.7260 O   0  0  0  0  0  0
   64.7220   48.7180   36.0170 O   0  0  0  0  0  0
   69.2843   49.9645   32.1880 H   0  0  0  0  0  0
   67.6764   47.0464   34.5791 H   0  0  0  0  0  0
   67.6766   48.7834   35.0367 H   0  0  0  0  0  0
   65.8803   49.8328   32.6406 H   0  0  0  0  0  0
   65.9223   47.5268   31.9542 H   0  0  0  0  0  0
   65.9701   46.1525   33.1099 H   0  0  0  0  0  0
   63.5333   47.9587   34.4598 H   0  0  0  0  0  0
   64.7147   49.7409   35.6124 H   0  0  0  0  0  0
  1  2  2  0  0  0
  1  3  1  0  0  0
  1  4  1  0  0  0
  3 14  1  0  0  0
  4  5  1  0  0  0
  4 15  1  0  0  0
  4 16  1  0  0  0
  5  6  1  0  0  0
  5  7  1  0  0  0
  5 11  1  0  0  0
  6 17  1  0  0  0
  7  8  1  0  0  0
  7 18  1  0  0  0
  7 19  1  0  0  0
  8  9  2  0  0  0
  8 10  1  0  0  0
 10 20  1  0  0  0
 11 12  2  0  0  0
 11 13  1  0  0  0
 13 21  1  0  0  0
M  END
> <s_m_source_file>
/cbio/jclab/home/rustenburg/PFK/Epik-Ligands/Results/InProgress/CITRIC ACID/pH_4.0/CITRIC ACID_pH_4.0-before_epik.mol2

> <i_m_source_file_index>
1

> <r_epik_Ionization_Penalty>
  2.5550

> <r_epik_Ionization_Penalty_Charging>
  0.0000

> <r_epik_Ionization_Penalty_Neutral>
  2.5550

> <r_epik_State_Penalty>
  0.5200

> <r_epik_Charging_Adjusted_Penalty>
0.519954359384578

> <i_epik_Tot_Q>
0

> <i_epik_Tot_abs_Q>
0

$$$$
CIT
                    3D
 Structure written by MMmdl.
 20 19  0  0  1  0            999 V2000
   68.4180   48.3850   33.0230 C   0  0  0  0  0  0
   68.8200   47.5710   32.3980 O   0  0  0  0  0  0
   68.6370   49.5560   32.9780 O   0  5  0  0  0  0
   67.4830   48.0690   34.2230 C   0  0  0  0  0  0
   65.9350   48.1150   34.0490 C   0  0  1  0  0  0
   65.4890   49.4220   33.5830 O   0  0  0  0  0  0
   65.5390   47.1450   32.9120 C   0  0  0  0  0  0
   64.0420   46.9920   32.7920 C   0  0  0  0  0  0
   63.6500   46.2810   31.7410 O   0  0  0  0  0  0
   63.2220   47.3690   33.5850 O   0  0  0  0  0  0
   65.2600   47.7760   35.3540 C   0  0  0  0  0  0
   65.3250   46.5580   35.7260 O   0  0  0  0  0  0
   64.7220   48.7180   36.0170 O   0  0  0  0  0  0
   67.6764   47.0464   34.5791 H   0  0  0  0  0  0
   67.6766   48.7834   35.0367 H   0  0  0  0  0  0
   65.8803   49.8328   32.6406 H   0  0  0  0  0  0
   65.9223   47.5268   31.9542 H   0  0  0  0  0  0
   65.9701   46.1525   33.1099 H   0  0  0  0  0  0
   63.5333   47.9587   34.4598 H   0  0  0  0  0  0
   64.7147   49.7409   35.6124 H   0  0  0  0  0  0
  1  2  2  0  0  0
  1  3  1  0  0  0
  1  4  1  0  0  0
  4  5  1  0  0  0
  4 14  1  0  0  0
  4 15  1  0  0  0
  5  6  1  0  0  0
  5  7  1  0  0  0
  5 11  1  0  0  0
  6 16  1  0  0  0
  7  8  1  0  0  0
  7 17  1  0  0  0
  7 18  1  0  0  0
  8  9  2  0  0  0
  8 10  1  0  0  0
 10 19  1  0  0  0
 11 12  2  0  0  0
 11 13  1  0  0  0
 13 20  1  0  0  0
M  CHG  1   3  -1
M  END
> <s_m_source_file>
/cbio/jclab/home/rustenburg/PFK/Epik-Ligands/Results/InProgress/CITRIC ACID/pH_4.0/CITRIC ACID_pH_4.0-before_epik.mol2

> <i_m_source_file_index>
1

> <r_epik_Ionization_Penalty>
  1.1505

> <r_epik_Ionization_Penalty_Charging>
  0.1243

> <r_epik_Ionization_Penalty_Neutral>
  1.0261

> <r_epik_State_Penalty>
  0.6099

> <r_epik_Charging_Adjusted_Penalty>
0.734178231872358

> <i_epik_Tot_Q>
-1

> <i_epik_Tot_abs_Q>
1

$$$$
CIT
                    3D
 Structure written by MMmdl.
 20 19  0  0  1  0            999 V2000
   68.4180   48.3850   33.0230 C   0  0  0  0  0  0
   68.8200   47.5710   32.3980 O   0  0  0  0  0  0
   68.6370   49.5560   32.9780 O   0  0  0  0  0  0
   67.4830   48.0690   34.2230 C   0  0  0  0  0  0
   65.9350   48.1150   34.0490 C   0  0  0  0  0  0
   65.4890   49.4220   33.5830 O   0  0  0  0  0  0
   65.5390   47.1450   32.9120 C   0  0  0  0  0  0
   64.0420   46.9920   32.7920 C   0  0  0  0  0  0
   63.6500   46.2810   31.7410 O   0  0  0  0  0  0
   63.2220   47.3690   33.5850 O   0  0  0  0  0  0
   65.2600   47.7760   35.3540 C   0  0  0  0  0  0
   65.3250   46.5580   35.7260 O   0  0  0  0  0  0
   64.7220   48.7180   36.0170 O   0  5  0  0  0  0
   69.2843   49.9645   32.1880 H   0  0  0  0  0  0
   67.6764   47.0464   34.5791 H   0  0  0  0  0  0
   67.6766   48.7834   35.0367 H   0  0  0  0  0  0
   65.8803   49.8328   32.6406 H   0  0  0  0  0  0
   65.9223   47.5268   31.9542 H   0  0  0  0  0  0
   65.9701   46.1525   33.1099 H   0  0  0  0  0  0
   63.5333   47.9587   34.4598 H   0  0  0  0  0  0
  1  2  2  0  0  0
  1  3  1  0  0  0
  1  4  1  0  0  0
  3 14  1  0  0  0
  4  5  1  0  0  0
  4 15  1  0  0  0
  4 16  1  0  0  0
  5  6  1  0  0  0
  5  7  1  0  0  0
  5 11  1  0  0  0
  6 17  1  0  0  0
  7  8  1  0  0  0
  7 18  1  0  0  0
  7 19  1  0  0  0
  8  9  2  0  0  0
  8 10  1  0  0  0
 10 20  1  0  0  0
 11 12  2  0  0  0
 11 13  1  0  0  0
M  CHG  1  13  -1
M  END
> <s_m_source_file>
/cbio/jclab/home/rustenburg/PFK/Epik-Ligands/Results/InProgress/CITRIC ACID/pH_4.0/CITRIC ACID_pH_4.0-before_epik.mol2

> <i_m_source_file_index>
1

> <r_epik_Ionization_Penalty>
  0.5230

> <r_epik_Ionization_Penalty_Charging>
  0.0435

> <r_epik_Ionization_Penalty_Neutral>
  0.4795

> <r_epik_State_Penalty>
  1.0675

> <r_epik_Charging_Adjusted_Penalty>
1.11102973204823

> <i_epik_Tot_Q>
-1

> <i_epik_Tot_abs_Q>
1

$$$$
CIT
                    3D
 Structure written by MMmdl.
 19 18  0  0  1  0            999 V2000
   68.4180   48.3850   33.0230 C   0  0  0  0  0  0
   68.8200   47.5710   32.3980 O   0  0  0  0  0  0
   68.6370   49.5560   32.9780 O   0  5  0  0  0  0
   67.4830   48.0690   34.2230 C   0  0  0  0  0  0
   65.9350   48.1150   34.0490 C   0  0  1  0  0  0
   65.4890   49.4220   33.5830 O   0  0  0  0  0  0
   65.5390   47.1450   32.9120 C   0  0  0  0  0  0
   64.0420   46.9920   32.7920 C   0  0  0  0  0  0
   63.6500   46.2810   31.7410 O   0  0  0  0  0  0
   63.2220   47.3690   33.5850 O   0  0  0  0  0  0
   65.2600   47.7760   35.3540 C   0  0  0  0  0  0
   65.3250   46.5580   35.7260 O   0  0  0  0  0  0
   64.7220   48.7180   36.0170 O   0  5  0  0  0  0
   67.6764   47.0464   34.5791 H   0  0  0  0  0  0
   67.6766   48.7834   35.0367 H   0  0  0  0  0  0
   65.8803   49.8328   32.6406 H   0  0  0  0  0  0
   65.9223   47.5268   31.9542 H   0  0  0  0  0  0
   65.9701   46.1525   33.1099 H   0  0  0  0  0  0
   63.5333   47.9587   34.4598 H   0  0  0  0  0  0
  1  2  2  0  0  0
  1  3  1  0  0  0
  1  4  1  0  0  0
  4  5  1  0  0  0
  4 14  1  0  0  0
  4 15  1  0  0  0
  5  6  1  0  0  0
  5  7  1  0  0  0
  5 11  1  0  0  0
  6 16  1  0  0  0
  7  8  1  0  0  0
  7 17  1  0  0  0
  7 18  1  0  0  0
  8  9  2  0  0  0
  8 10  1  0  0  0
 10 19  1  0  0  0
 11 12  2  0  0  0
 11 13  1  0  0  0
M  CHG  2   3  -1  13  -1
M  END
> <s_m_source_file>
/cbio/jclab/home/rustenburg/PFK/Epik-Ligands/Results/InProgress/CITRIC ACID/pH_4.0/CITRIC ACID_pH_4.0-before_epik.mol2

> <i_m_source_file_index>
1

> <r_epik_Ionization_Penalty>
  0.6189

> <r_epik_Ionization_Penalty_Charging>
  0.5348

> <r_epik_Ionization_Penalty_Neutral>
  0.0841

> <r_epik_State_Penalty>
  2.0461

> <r_epik_Charging_Adjusted_Penalty>
2.58088008301613

> <i_epik_Tot_Q>
-2

> <i_epik_Tot_abs_Q>
2

$$$$
CIT
                    3D
 Structure written by MMmdl.
 19 18  0  0  1  0            999 V2000
   68.4180   48.3850   33.0230 C   0  0  0  0  0  0
   68.8200   47.5710   32.3980 O   0  0  0  0  0  0
   68.6370   49.5560   32.9780 O   0  5  0  0  0  0
   67.4830   48.0690   34.2230 C   0  0  0  0  0  0
   65.9350   48.1150   34.0490 C   0  0  0  0  0  0
   65.4890   49.4220   33.5830 O   0  0  0  0  0  0
   65.5390   47.1450   32.9120 C   0  0  0  0  0  0
   64.0420   46.9920   32.7920 C   0  0  0  0  0  0
   63.6500   46.2810   31.7410 O   0  0  0  0  0  0
   63.2220   47.3690   33.5850 O   0  5  0  0  0  0
   65.2600   47.7760   35.3540 C   0  0  0  0  0  0
   65.3250   46.5580   35.7260 O   0  0  0  0  0  0
   64.7220   48.7180   36.0170 O   0  0  0  0  0  0
   67.6764   47.0464   34.5791 H   0  0  0  0  0  0
   67.6766   48.7834   35.0367 H   0  0  0  0  0  0
   65.8803   49.8328   32.6406 H   0  0  0  0  0  0
   65.9223   47.5268   31.9542 H   0  0  0  0  0  0
   65.9701   46.1525   33.1099 H   0  0  0  0  0  0
   64.7147   49.7409   35.6124 H   0  0  0  0  0  0
  1  2  2  0  0  0
  1  3  1  0  0  0
  1  4  1  0  0  0
  4  5  1  0  0  0
  4 14  1  0  0  0
  4 15  1  0  0  0
  5  6  1  0  0  0
  5  7  1  0  0  0
  5 11  1  0  0  0
  6 16  1  0  0  0
  7  8  1  0  0  0
  7 17  1  0  0  0
  7 18  1  0  0  0
  8  9  2  0  0  0
  8 10  1  0  0  0
 11 12  2  0  0  0
 11 13  1  0  0  0
 13 19  1  0  0  0
M  CHG  2   3  -1  10  -1
M  END
> <s_m_source_file>
/cbio/jclab/home/rustenburg/PFK/Epik-Ligands/Results/InProgress/CITRIC ACID/pH_4.0/CITRIC ACID_pH_4.0-before_epik.mol2

> <i_m_source_file_index>
1

> <r_epik_Ionization_Penalty>
  1.0011

> <r_epik_Ionization_Penalty_Charging>
  0.6350

> <r_epik_Ionization_Penalty_Neutral>
  0.3661

> <r_epik_State_Penalty>
  2.0851

> <r_epik_Charging_Adjusted_Penalty>
2.72010567588369

> <i_epik_Tot_Q>
-2

> <i_epik_Tot_abs_Q>
2

$$$$
CIT
                    3D
 Structure written by MMmdl.
 18 17  0  0  1  0            999 V2000
   68.4180   48.3850   33.0230 C   0  0  0  0  0  0
   68.8200   47.5710   32.3980 O   0  0  0  0  0  0
   68.6370   49.5560   32.9780 O   0  5  0  0  0  0
   67.4830   48.0690   34.2230 C   0  0  0  0  0  0
   65.9350   48.1150   34.0490 C   0  0  0  0  0  0
   65.4890   49.4220   33.5830 O   0  0  0  0  0  0
   65.5390   47.1450   32.9120 C   0  0  0  0  0  0
   64.0420   46.9920   32.7920 C   0  0  0  0  0  0
   63.6500   46.2810   31.7410 O   0  0  0  0  0  0
   63.2220   47.3690   33.5850 O   0  5  0  0  0  0
   65.2600   47.7760   35.3540 C   0  0  0  0  0  0
   65.3250   46.5580   35.7260 O   0  0  0  0  0  0
   64.7220   48.7180   36.0170 O   0  5  0  0  0  0
   67.6764   47.0464   34.5791 H   0  0  0  0  0  0
   67.6766   48.7834   35.0367 H   0  0  0  0  0  0
   65.8803   49.8328   32.6406 H   0  0  0  0  0  0
   65.9223   47.5268   31.9542 H   0  0  0  0  0  0
   65.9701   46.1525   33.1099 H   0  0  0  0  0  0
  1  2  2  0  0  0
  1  3  1  0  0  0
  1  4  1  0  0  0
  4  5  1  0  0  0
  4 14  1  0  0  0
  4 15  1  0  0  0
  5  6  1  0  0  0
  5  7  1  0  0  0
  5 11  1  0  0  0
  6 16  1  0  0  0
  7  8  1  0  0  0
  7 17  1  0  0  0
  7 18  1  0  0  0
  8  9  2  0  0  0
  8 10  1  0  0  0
 11 12  2  0  0  0
 11 13  1  0  0  0
M  CHG  3   3  -1  10  -1  13  -1
M  END
> <s_m_source_file>
/cbio/jclab/home/rustenburg/PFK/Epik-Ligands/Results/InProgress/CITRIC ACID/pH_4.0/CITRIC ACID_pH_4.0-before_epik.mol2

> <i_m_source_file_index>
1

> <r_epik_Ionization_Penalty>
  1.6959

> <r_epik_Ionization_Penalty_Charging>
  1.6606

> <r_epik_Ionization_Penalty_Neutral>
  0.0353

> <r_epik_State_Penalty>
  4.3041

> <r_epik_Charging_Adjusted_Penalty>
5.96468782702369

> <i_epik_Tot_Q>
-3

> <i_epik_Tot_abs_Q>
3

$$$$
