ATP
                    3D
 Structure written by MMmdl.
 43 45  0  0  1  0            999 V2000
   46.1070   45.1820   56.9500 P   0  0  0  0  0  0
   45.7790   46.3300   56.0520 O   0  0  0  0  0  0
   47.3820   44.4970   56.6260 O   0  5  0  0  0  0
   45.9720   45.5300   58.3750 O   0  5  0  0  0  0
   43.9110   43.7400   55.6550 P   0  0  0  0  0  0
   42.9750   42.7220   55.9860 O   0  0  0  0  0  0
   43.6030   44.7670   54.6780 O   0  5  0  0  0  0
   45.0410   44.0150   56.7380 O   0  0  0  0  0  0
   45.2280   42.6690   53.2570 P   0  0  0  0  0  0
   46.3800   43.3960   52.7880 O   0  0  0  0  0  0
   44.1830   42.1900   52.3510 O   0  5  0  0  0  0
   44.9170   42.7160   54.7890 O   0  0  0  0  0  0
   46.1720   41.5680   53.3020 O   0  0  0  0  0  0
   46.6090   40.4220   53.5420 C   0  0  0  0  0  0
   46.5200   38.9890   53.3640 C   0  0  1  0  0  0
   46.7850   38.9080   51.9480 O   0  0  0  0  0  0
   47.8080   38.8740   54.1120 C   0  0  1  0  0  0
   47.7130   38.3570   55.4230 O   0  0  0  0  0  0
   48.7190   38.1160   53.1390 C   0  0  1  0  0  0
   48.6320   36.7370   53.4250 O   0  0  0  0  0  0
   48.1330   38.4090   51.7210 C   0  0  2  0  0  0
   48.8460   39.4640   50.9860 N   0  0  0  0  0  0
   48.6160   40.8420   50.9450 C   0  0  0  0  0  0
   49.4250   41.4890   50.1650 N   0  0  0  0  0  0
   50.2320   40.4700   49.6640 C   0  0  0  0  0  0
   51.3080   40.4660   48.7310 C   0  0  0  0  0  0
   51.7210   41.5680   48.1290 N   0  0  0  0  0  0
   51.9120   39.2740   48.4470 N   0  0  0  0  0  0
   51.4930   38.1510   49.0290 C   0  0  0  0  0  0
   50.4910   38.0160   49.9000 N   0  0  0  0  0  0
   49.8920   39.2530   50.1710 C   0  0  0  0  0  0
   47.6492   40.3457   53.1926 H   0  0  0  0  0  0
   46.5714   40.2346   54.6253 H   0  0  0  0  0  0
   45.6654   38.3452   53.6190 H   0  0  0  0  0  0
   48.2020   39.8423   54.4542 H   0  0  0  0  0  0
   47.0751   38.8571   56.1666 H   0  0  0  0  0  0
   49.7910   38.3380   53.2466 H   0  0  0  0  0  0
   49.0003   36.3505   54.3868 H   0  0  0  0  0  0
   48.1676   37.5175   51.0776 H   0  0  0  0  0  0
   47.8360   41.3900   51.4990 H   0  0  0  0  0  0
   51.2389   42.5309   48.3533 H   0  0  0  0  0  0
   52.5468   41.5221   47.4038 H   0  0  0  0  0  0
   52.0360   37.2290   48.7590 H   0  0  0  0  0  0
  1  2  2  0  0  0
  1  3  1  0  0  0
  1  4  1  0  0  0
  1  8  1  0  0  0
  5  6  2  0  0  0
  5  7  1  0  0  0
  5  8  1  0  0  0
  5 12  1  0  0  0
  9 10  2  0  0  0
  9 11  1  0  0  0
  9 12  1  0  0  0
  9 13  1  0  0  0
 13 14  1  0  0  0
 14 15  1  0  0  0
 14 32  1  0  0  0
 14 33  1  0  0  0
 15 16  1  0  0  0
 15 17  1  0  0  0
 15 34  1  0  0  0
 16 21  1  0  0  0
 17 18  1  0  0  0
 17 19  1  0  0  0
 17 35  1  0  0  0
 18 36  1  0  0  0
 19 20  1  0  0  0
 19 21  1  0  0  0
 19 37  1  0  0  0
 20 38  1  0  0  0
 21 22  1  0  0  0
 21 39  1  0  0  0
 22 23  1  0  0  0
 22 31  1  0  0  0
 23 24  2  0  0  0
 23 40  1  0  0  0
 24 25  1  0  0  0
 25 26  2  0  0  0
 25 31  1  0  0  0
 26 27  1  0  0  0
 26 28  1  0  0  0
 27 41  1  0  0  0
 27 42  1  0  0  0
 28 29  2  0  0  0
 29 30  1  0  0  0
 29 43  1  0  0  0
 30 31  2  0  0  0
M  CHG  4   3  -1   4  -1   7  -1  11  -1
M  END
> <s_m_source_file>
/cbio/jclab/home/rustenburg/PFK/Epik-Ligands/Results/InProgress/ADENOSINE-5'-TRIPHOSPHATE/pH_7.4/ADENOSINE-5'-TRIPHOSPHATE_pH_7.4-before_epik.mol2

> <i_m_source_file_index>
1

> <r_lp_tautomer_probability>
0.999997216410988

> <r_epik_Ionization_Penalty>
  0.0339

> <r_epik_Ionization_Penalty_Charging>
  0.0337

> <r_epik_Ionization_Penalty_Neutral>
  0.0002

> <r_epik_State_Penalty>
  0.0289

> <r_epik_Charging_Adjusted_Penalty>
0.0625710036685035

> <i_epik_Tot_Q>
-4

> <i_epik_Tot_abs_Q>
4

> <s_epik_Chemistry_Notes>
This compound contains an acetal/aminal-like group ( X-CH(R)-Y where X, Y are N, S, or O) that may be acid/base labile, releasing an aldehyde.

$$$$
ATP
                    3D
 Structure written by MMmdl.
 44 46  0  0  1  0            999 V2000
   46.1070   45.1820   56.9500 P   0  0  0  0  0  0
   45.7790   46.3300   56.0520 O   0  0  0  0  0  0
   47.3820   44.4970   56.6260 O   0  5  0  0  0  0
   45.9720   45.5300   58.3750 O   0  0  0  0  0  0
   43.9110   43.7400   55.6550 P   0  0  0  0  0  0
   42.9750   42.7220   55.9860 O   0  0  0  0  0  0
   43.6030   44.7670   54.6780 O   0  5  0  0  0  0
   45.0410   44.0150   56.7380 O   0  0  0  0  0  0
   45.2280   42.6690   53.2570 P   0  0  0  0  0  0
   46.3800   43.3960   52.7880 O   0  0  0  0  0  0
   44.1830   42.1900   52.3510 O   0  5  0  0  0  0
   44.9170   42.7160   54.7890 O   0  0  0  0  0  0
   46.1720   41.5680   53.3020 O   0  0  0  0  0  0
   46.6090   40.4220   53.5420 C   0  0  0  0  0  0
   46.5200   38.9890   53.3640 C   0  0  1  0  0  0
   46.7850   38.9080   51.9480 O   0  0  0  0  0  0
   47.8080   38.8740   54.1120 C   0  0  1  0  0  0
   47.7130   38.3570   55.4230 O   0  0  0  0  0  0
   48.7190   38.1160   53.1390 C   0  0  1  0  0  0
   48.6320   36.7370   53.4250 O   0  0  0  0  0  0
   48.1330   38.4090   51.7210 C   0  0  2  0  0  0
   48.8460   39.4640   50.9860 N   0  0  0  0  0  0
   48.6160   40.8420   50.9450 C   0  0  0  0  0  0
   49.4250   41.4890   50.1650 N   0  0  0  0  0  0
   50.2320   40.4700   49.6640 C   0  0  0  0  0  0
   51.3080   40.4660   48.7310 C   0  0  0  0  0  0
   51.7210   41.5680   48.1290 N   0  0  0  0  0  0
   51.9120   39.2740   48.4470 N   0  0  0  0  0  0
   51.4930   38.1510   49.0290 C   0  0  0  0  0  0
   50.4910   38.0160   49.9000 N   0  0  0  0  0  0
   49.8920   39.2530   50.1710 C   0  0  0  0  0  0
   46.5992   46.3224   58.8095 H   0  0  0  0  0  0
   47.6492   40.3457   53.1926 H   0  0  0  0  0  0
   46.5714   40.2346   54.6253 H   0  0  0  0  0  0
   45.6654   38.3452   53.6190 H   0  0  0  0  0  0
   48.2020   39.8423   54.4542 H   0  0  0  0  0  0
   47.0751   38.8571   56.1666 H   0  0  0  0  0  0
   49.7910   38.3380   53.2466 H   0  0  0  0  0  0
   49.0003   36.3505   54.3868 H   0  0  0  0  0  0
   48.1676   37.5175   51.0776 H   0  0  0  0  0  0
   47.8360   41.3900   51.4990 H   0  0  0  0  0  0
   51.2389   42.5309   48.3533 H   0  0  0  0  0  0
   52.5468   41.5221   47.4038 H   0  0  0  0  0  0
   52.0360   37.2290   48.7590 H   0  0  0  0  0  0
  1  2  2  0  0  0
  1  3  1  0  0  0
  1  4  1  0  0  0
  1  8  1  0  0  0
  4 32  1  0  0  0
  5  6  2  0  0  0
  5  7  1  0  0  0
  5  8  1  0  0  0
  5 12  1  0  0  0
  9 10  2  0  0  0
  9 11  1  0  0  0
  9 12  1  0  0  0
  9 13  1  0  0  0
 13 14  1  0  0  0
 14 15  1  0  0  0
 14 33  1  0  0  0
 14 34  1  0  0  0
 15 16  1  0  0  0
 15 17  1  0  0  0
 15 35  1  0  0  0
 16 21  1  0  0  0
 17 18  1  0  0  0
 17 19  1  0  0  0
 17 36  1  0  0  0
 18 37  1  0  0  0
 19 20  1  0  0  0
 19 21  1  0  0  0
 19 38  1  0  0  0
 20 39  1  0  0  0
 21 22  1  0  0  0
 21 40  1  0  0  0
 22 23  1  0  0  0
 22 31  1  0  0  0
 23 24  2  0  0  0
 23 41  1  0  0  0
 24 25  1  0  0  0
 25 26  2  0  0  0
 25 31  1  0  0  0
 26 27  1  0  0  0
 26 28  1  0  0  0
 27 42  1  0  0  0
 27 43  1  0  0  0
 28 29  2  0  0  0
 29 30  1  0  0  0
 29 44  1  0  0  0
 30 31  2  0  0  0
M  CHG  3   3  -1   7  -1  11  -1
M  END
> <s_m_source_file>
/cbio/jclab/home/rustenburg/PFK/Epik-Ligands/Results/InProgress/ADENOSINE-5'-TRIPHOSPHATE/pH_7.4/ADENOSINE-5'-TRIPHOSPHATE_pH_7.4-before_epik.mol2

> <i_m_source_file_index>
1

> <r_lp_tautomer_probability>
0.999997216410988

> <r_epik_Ionization_Penalty>
  1.7252

> <r_epik_Ionization_Penalty_Charging>
  0.0002

> <r_epik_Ionization_Penalty_Neutral>
  1.7250

> <r_epik_State_Penalty>
  1.8099

> <r_epik_Charging_Adjusted_Penalty>
1.81007602205894

> <i_epik_Tot_Q>
-3

> <i_epik_Tot_abs_Q>
3

> <s_epik_Chemistry_Notes>
This compound contains an acetal/aminal-like group ( X-CH(R)-Y where X, Y are N, S, or O) that may be acid/base labile, releasing an aldehyde.

$$$$
ATP
                    3D
 Structure written by MMmdl.
 44 46  0  0  1  0            999 V2000
   46.1070   45.1820   56.9500 P   0  0  0  0  0  0
   45.7790   46.3300   56.0520 O   0  0  0  0  0  0
   47.3820   44.4970   56.6260 O   0  5  0  0  0  0
   45.9720   45.5300   58.3750 O   0  5  0  0  0  0
   43.9110   43.7400   55.6550 P   0  0  1  0  0  0
   42.9750   42.7220   55.9860 O   0  0  0  0  0  0
   43.6030   44.7670   54.6780 O   0  0  0  0  0  0
   45.0410   44.0150   56.7380 O   0  0  0  0  0  0
   45.2280   42.6690   53.2570 P   0  0  0  0  0  0
   46.3800   43.3960   52.7880 O   0  0  0  0  0  0
   44.1830   42.1900   52.3510 O   0  5  0  0  0  0
   44.9170   42.7160   54.7890 O   0  0  0  0  0  0
   46.1720   41.5680   53.3020 O   0  0  0  0  0  0
   46.6090   40.4220   53.5420 C   0  0  0  0  0  0
   46.5200   38.9890   53.3640 C   0  0  1  0  0  0
   46.7850   38.9080   51.9480 O   0  0  0  0  0  0
   47.8080   38.8740   54.1120 C   0  0  1  0  0  0
   47.7130   38.3570   55.4230 O   0  0  0  0  0  0
   48.7190   38.1160   53.1390 C   0  0  1  0  0  0
   48.6320   36.7370   53.4250 O   0  0  0  0  0  0
   48.1330   38.4090   51.7210 C   0  0  2  0  0  0
   48.8460   39.4640   50.9860 N   0  0  0  0  0  0
   48.6160   40.8420   50.9450 C   0  0  0  0  0  0
   49.4250   41.4890   50.1650 N   0  0  0  0  0  0
   50.2320   40.4700   49.6640 C   0  0  0  0  0  0
   51.3080   40.4660   48.7310 C   0  0  0  0  0  0
   51.7210   41.5680   48.1290 N   0  0  0  0  0  0
   51.9120   39.2740   48.4470 N   0  0  0  0  0  0
   51.4930   38.1510   49.0290 C   0  0  0  0  0  0
   50.4910   38.0160   49.9000 N   0  0  0  0  0  0
   49.8920   39.2530   50.1710 C   0  0  0  0  0  0
   42.9452   45.6055   54.9502 H   0  0  0  0  0  0
   47.6492   40.3457   53.1926 H   0  0  0  0  0  0
   46.5714   40.2346   54.6253 H   0  0  0  0  0  0
   45.6654   38.3452   53.6190 H   0  0  0  0  0  0
   48.2020   39.8423   54.4542 H   0  0  0  0  0  0
   47.0751   38.8571   56.1666 H   0  0  0  0  0  0
   49.7910   38.3380   53.2466 H   0  0  0  0  0  0
   49.0003   36.3505   54.3868 H   0  0  0  0  0  0
   48.1676   37.5175   51.0776 H   0  0  0  0  0  0
   47.8360   41.3900   51.4990 H   0  0  0  0  0  0
   51.2389   42.5309   48.3533 H   0  0  0  0  0  0
   52.5468   41.5221   47.4038 H   0  0  0  0  0  0
   52.0360   37.2290   48.7590 H   0  0  0  0  0  0
  1  2  2  0  0  0
  1  3  1  0  0  0
  1  4  1  0  0  0
  1  8  1  0  0  0
  5  6  2  0  0  0
  5  7  1  0  0  0
  5  8  1  0  0  0
  5 12  1  0  0  0
  7 32  1  0  0  0
  9 10  2  0  0  0
  9 11  1  0  0  0
  9 12  1  0  0  0
  9 13  1  0  0  0
 13 14  1  0  0  0
 14 15  1  0  0  0
 14 33  1  0  0  0
 14 34  1  0  0  0
 15 16  1  0  0  0
 15 17  1  0  0  0
 15 35  1  0  0  0
 16 21  1  0  0  0
 17 18  1  0  0  0
 17 19  1  0  0  0
 17 36  1  0  0  0
 18 37  1  0  0  0
 19 20  1  0  0  0
 19 21  1  0  0  0
 19 38  1  0  0  0
 20 39  1  0  0  0
 21 22  1  0  0  0
 21 40  1  0  0  0
 22 23  1  0  0  0
 22 31  1  0  0  0
 23 24  2  0  0  0
 23 41  1  0  0  0
 24 25  1  0  0  0
 25 26  2  0  0  0
 25 31  1  0  0  0
 26 27  1  0  0  0
 26 28  1  0  0  0
 27 42  1  0  0  0
 27 43  1  0  0  0
 28 29  2  0  0  0
 29 30  1  0  0  0
 29 44  1  0  0  0
 30 31  2  0  0  0
M  CHG  3   3  -1   4  -1  11  -1
M  END
> <s_m_source_file>
/cbio/jclab/home/rustenburg/PFK/Epik-Ligands/Results/InProgress/ADENOSINE-5'-TRIPHOSPHATE/pH_7.4/ADENOSINE-5'-TRIPHOSPHATE_pH_7.4-before_epik.mol2

> <i_m_source_file_index>
1

> <r_epik_Ionization_Penalty>
  4.2881

> <r_epik_Ionization_Penalty_Charging>
  0.0090

> <r_epik_Ionization_Penalty_Neutral>
  4.2791

> <r_epik_State_Penalty>
  4.7583

> <r_epik_Charging_Adjusted_Penalty>
4.76732553367016

> <i_epik_Tot_Q>
-3

> <i_epik_Tot_abs_Q>
3

> <s_epik_Chemistry_Notes>
This compound contains an acetal/aminal-like group ( X-CH(R)-Y where X, Y are N, S, or O) that may be acid/base labile, releasing an aldehyde.

$$$$
ATP
                    3D
 Structure written by MMmdl.
 44 46  0  0  1  0            999 V2000
   46.1070   45.1820   56.9500 P   0  0  0  0  0  0
   45.7790   46.3300   56.0520 O   0  0  0  0  0  0
   47.3820   44.4970   56.6260 O   0  5  0  0  0  0
   45.9720   45.5300   58.3750 O   0  5  0  0  0  0
   43.9110   43.7400   55.6550 P   0  0  0  0  0  0
   42.9750   42.7220   55.9860 O   0  0  0  0  0  0
   43.6030   44.7670   54.6780 O   0  5  0  0  0  0
   45.0410   44.0150   56.7380 O   0  0  0  0  0  0
   45.2280   42.6690   53.2570 P   0  0  2  0  0  0
   46.3800   43.3960   52.7880 O   0  0  0  0  0  0
   44.1830   42.1900   52.3510 O   0  0  0  0  0  0
   44.9170   42.7160   54.7890 O   0  0  0  0  0  0
   46.1720   41.5680   53.3020 O   0  0  0  0  0  0
   46.6090   40.4220   53.5420 C   0  0  0  0  0  0
   46.5200   38.9890   53.3640 C   0  0  1  0  0  0
   46.7850   38.9080   51.9480 O   0  0  0  0  0  0
   47.8080   38.8740   54.1120 C   0  0  1  0  0  0
   47.7130   38.3570   55.4230 O   0  0  0  0  0  0
   48.7190   38.1160   53.1390 C   0  0  1  0  0  0
   48.6320   36.7370   53.4250 O   0  0  0  0  0  0
   48.1330   38.4090   51.7210 C   0  0  2  0  0  0
   48.8460   39.4640   50.9860 N   0  0  0  0  0  0
   48.6160   40.8420   50.9450 C   0  0  0  0  0  0
   49.4250   41.4890   50.1650 N   0  0  0  0  0  0
   50.2320   40.4700   49.6640 C   0  0  0  0  0  0
   51.3080   40.4660   48.7310 C   0  0  0  0  0  0
   51.7210   41.5680   48.1290 N   0  0  0  0  0  0
   51.9120   39.2740   48.4470 N   0  0  0  0  0  0
   51.4930   38.1510   49.0290 C   0  0  0  0  0  0
   50.4910   38.0160   49.9000 N   0  0  0  0  0  0
   49.8920   39.2530   50.1710 C   0  0  0  0  0  0
   43.3173   42.8293   52.1230 H   0  0  0  0  0  0
   47.6492   40.3457   53.1926 H   0  0  0  0  0  0
   46.5714   40.2346   54.6253 H   0  0  0  0  0  0
   45.6654   38.3452   53.6190 H   0  0  0  0  0  0
   48.2020   39.8423   54.4542 H   0  0  0  0  0  0
   47.0751   38.8571   56.1666 H   0  0  0  0  0  0
   49.7910   38.3380   53.2466 H   0  0  0  0  0  0
   49.0003   36.3505   54.3868 H   0  0  0  0  0  0
   48.1676   37.5175   51.0776 H   0  0  0  0  0  0
   47.8360   41.3900   51.4990 H   0  0  0  0  0  0
   51.2389   42.5309   48.3533 H   0  0  0  0  0  0
   52.5468   41.5221   47.4038 H   0  0  0  0  0  0
   52.0360   37.2290   48.7590 H   0  0  0  0  0  0
  1  2  2  0  0  0
  1  3  1  0  0  0
  1  4  1  0  0  0
  1  8  1  0  0  0
  5  6  2  0  0  0
  5  7  1  0  0  0
  5  8  1  0  0  0
  5 12  1  0  0  0
  9 10  2  0  0  0
  9 11  1  0  0  0
  9 12  1  0  0  0
  9 13  1  0  0  0
 11 32  1  0  0  0
 13 14  1  0  0  0
 14 15  1  0  0  0
 14 33  1  0  0  0
 14 34  1  0  0  0
 15 16  1  0  0  0
 15 17  1  0  0  0
 15 35  1  0  0  0
 16 21  1  0  0  0
 17 18  1  0  0  0
 17 19  1  0  0  0
 17 36  1  0  0  0
 18 37  1  0  0  0
 19 20  1  0  0  0
 19 21  1  0  0  0
 19 38  1  0  0  0
 20 39  1  0  0  0
 21 22  1  0  0  0
 21 40  1  0  0  0
 22 23  1  0  0  0
 22 31  1  0  0  0
 23 24  2  0  0  0
 23 41  1  0  0  0
 24 25  1  0  0  0
 25 26  2  0  0  0
 25 31  1  0  0  0
 26 27  1  0  0  0
 26 28  1  0  0  0
 27 42  1  0  0  0
 27 43  1  0  0  0
 28 29  2  0  0  0
 29 30  1  0  0  0
 29 44  1  0  0  0
 30 31  2  0  0  0
M  CHG  3   3  -1   4  -1   7  -1
M  END
> <s_m_source_file>
/cbio/jclab/home/rustenburg/PFK/Epik-Ligands/Results/InProgress/ADENOSINE-5'-TRIPHOSPHATE/pH_7.4/ADENOSINE-5'-TRIPHOSPHATE_pH_7.4-before_epik.mol2

> <i_m_source_file_index>
1

> <r_epik_Ionization_Penalty>
  5.1471

> <r_epik_Ionization_Penalty_Charging>
  0.0284

> <r_epik_Ionization_Penalty_Neutral>
  5.1187

> <r_epik_State_Penalty>
  5.5036

> <r_epik_Charging_Adjusted_Penalty>
5.53207464131952

> <i_epik_Tot_Q>
-3

> <i_epik_Tot_abs_Q>
3

> <s_epik_Chemistry_Notes>
This compound contains an acetal/aminal-like group ( X-CH(R)-Y where X, Y are N, S, or O) that may be acid/base labile, releasing an aldehyde.

$$$$
