EPE
                    3D
 Structure written by MMmdl.
 34 34  0  0  1  0            999 V2000
   61.6520   47.3370   51.6160 N   0  3  1  0  0  0
   63.0510   46.9050   51.9670 C   0  0  0  0  0  0
   63.9620   47.2570   50.7960 C   0  0  0  0  0  0
   63.5510   46.5440   49.5780 N   0  3  1  0  0  0
   62.1510   46.9100   49.2480 C   0  0  0  0  0  0
   61.2180   46.5540   50.4020 C   0  0  0  0  0  0
   64.3680   46.8930   48.3850 C   0  0  0  0  0  0
   65.8540   46.7210   48.6130 C   0  0  0  0  0  0
   66.2400   45.4000   48.9790 O   0  0  0  0  0  0
   60.6850   46.9920   52.7090 C   0  0  0  0  0  0
   60.8700   47.9740   53.8930 C   0  0  0  0  0  0
   59.5590   47.6920   55.0900 S   0  0  0  0  0  0
   59.7320   48.6940   56.1150 O   0  0  0  0  0  0
   59.7370   46.3270   55.5960 O   0  0  0  0  0  0
   58.3310   47.8630   54.3580 O   0  5  0  0  0  0
   63.3802   47.4310   52.8753 H   0  0  0  0  0  0
   63.0656   45.8198   52.1462 H   0  0  0  0  0  0
   63.9127   48.3393   50.6055 H   0  0  0  0  0  0
   64.9970   46.9742   51.0387 H   0  0  0  0  0  0
   62.0895   47.9921   49.0602 H   0  0  0  0  0  0
   61.8312   46.3630   48.3488 H   0  0  0  0  0  0
   61.2784   45.4774   50.6192 H   0  0  0  0  0  0
   60.1815   46.8188   50.1462 H   0  0  0  0  0  0
   64.0827   46.2452   47.5430 H   0  0  0  0  0  0
   64.1917   47.9446   48.1147 H   0  0  0  0  0  0
   66.3980   46.9719   47.6904 H   0  0  0  0  0  0
   66.1802   47.3886   49.4241 H   0  0  0  0  0  0
   67.2987   45.1687   49.1676 H   0  0  0  0  0  0
   59.6565   47.0692   52.3265 H   0  0  0  0  0  0
   60.8720   45.9641   53.0531 H   0  0  0  0  0  0
   61.8486   47.8000   54.3642 H   0  0  0  0  0  0
   60.8202   49.0086   53.5226 H   0  0  0  0  0  0
   63.6797   45.4756   49.8062 H   0  0  0  0  0  0
   61.6534   48.4252   51.4556 H   0  0  0  0  0  0
  1  2  1  0  0  0
  1  6  1  0  0  0
  1 10  1  0  0  0
  1 34  1  0  0  0
  2  3  1  0  0  0
  2 16  1  0  0  0
  2 17  1  0  0  0
  3  4  1  0  0  0
  3 18  1  0  0  0
  3 19  1  0  0  0
  4  5  1  0  0  0
  4  7  1  0  0  0
  4 33  1  0  0  0
  5  6  1  0  0  0
  5 20  1  0  0  0
  5 21  1  0  0  0
  6 22  1  0  0  0
  6 23  1  0  0  0
  7  8  1  0  0  0
  7 24  1  0  0  0
  7 25  1  0  0  0
  8  9  1  0  0  0
  8 26  1  0  0  0
  8 27  1  0  0  0
  9 28  1  0  0  0
 10 11  1  0  0  0
 10 29  1  0  0  0
 10 30  1  0  0  0
 11 12  1  0  0  0
 11 31  1  0  0  0
 11 32  1  0  0  0
 12 13  2  0  0  0
 12 14  2  0  0  0
 12 15  1  0  0  0
M  CHG  3   1   1   4   1  15  -1
M  END
> <s_m_source_file>
/cbio/jclab/home/rustenburg/PFK/Epik-Ligands/Results/InProgress/4-(2-HYDROXYETHYL)-1-PIPERAZINE ETHANESULFONIC ACID/pH_4.0/4-(2-HYDROXYETHYL)-1-PIPERAZINE ETHANESULFONIC ACID_pH_4.0-before_epik.mol2

> <i_m_source_file_index>
1

> <r_epik_Ionization_Penalty>
  0.6010

> <r_epik_Ionization_Penalty_Charging>
  0.6010

> <r_epik_Ionization_Penalty_Neutral>
  0.0000

> <r_epik_State_Penalty>
  0.3717

> <r_epik_Charging_Adjusted_Penalty>
0.972649373761214

> <i_epik_Tot_Q>
1

> <i_epik_Tot_abs_Q>
3

$$$$
EPE
                    3D
 Structure written by MMmdl.
 33 33  0  0  1  0            999 V2000
   61.6520   47.3370   51.6160 N   0  0  0  0  0  0
   63.0510   46.9050   51.9670 C   0  0  0  0  0  0
   63.9620   47.2570   50.7960 C   0  0  0  0  0  0
   63.5510   46.5440   49.5780 N   0  3  0  0  0  0
   62.1510   46.9100   49.2480 C   0  0  0  0  0  0
   61.2180   46.5540   50.4020 C   0  0  0  0  0  0
   64.3680   46.8930   48.3850 C   0  0  0  0  0  0
   65.8540   46.7210   48.6130 C   0  0  0  0  0  0
   66.2400   45.4000   48.9790 O   0  0  0  0  0  0
   60.6850   46.9920   52.7090 C   0  0  0  0  0  0
   60.8700   47.9740   53.8930 C   0  0  0  0  0  0
   59.5590   47.6920   55.0900 S   0  0  0  0  0  0
   59.7320   48.6940   56.1150 O   0  0  0  0  0  0
   59.7370   46.3270   55.5960 O   0  0  0  0  0  0
   58.3310   47.8630   54.3580 O   0  5  0  0  0  0
   63.3802   47.4310   52.8753 H   0  0  0  0  0  0
   63.0656   45.8198   52.1462 H   0  0  0  0  0  0
   63.9127   48.3393   50.6055 H   0  0  0  0  0  0
   64.9970   46.9742   51.0387 H   0  0  0  0  0  0
   62.0895   47.9921   49.0602 H   0  0  0  0  0  0
   61.8312   46.3630   48.3488 H   0  0  0  0  0  0
   61.2784   45.4774   50.6192 H   0  0  0  0  0  0
   60.1815   46.8188   50.1462 H   0  0  0  0  0  0
   64.0827   46.2452   47.5430 H   0  0  0  0  0  0
   64.1917   47.9446   48.1147 H   0  0  0  0  0  0
   66.3980   46.9719   47.6904 H   0  0  0  0  0  0
   66.1802   47.3886   49.4241 H   0  0  0  0  0  0
   67.2987   45.1687   49.1676 H   0  0  0  0  0  0
   59.6565   47.0692   52.3265 H   0  0  0  0  0  0
   60.8720   45.9641   53.0531 H   0  0  0  0  0  0
   61.8486   47.8000   54.3642 H   0  0  0  0  0  0
   60.8202   49.0086   53.5226 H   0  0  0  0  0  0
   63.6797   45.4756   49.8062 H   0  0  0  0  0  0
  1  2  1  0  0  0
  1  6  1  0  0  0
  1 10  1  0  0  0
  2  3  1  0  0  0
  2 16  1  0  0  0
  2 17  1  0  0  0
  3  4  1  0  0  0
  3 18  1  0  0  0
  3 19  1  0  0  0
  4  5  1  0  0  0
  4  7  1  0  0  0
  4 33  1  0  0  0
  5  6  1  0  0  0
  5 20  1  0  0  0
  5 21  1  0  0  0
  6 22  1  0  0  0
  6 23  1  0  0  0
  7  8  1  0  0  0
  7 24  1  0  0  0
  7 25  1  0  0  0
  8  9  1  0  0  0
  8 26  1  0  0  0
  8 27  1  0  0  0
  9 28  1  0  0  0
 10 11  1  0  0  0
 10 29  1  0  0  0
 10 30  1  0  0  0
 11 12  1  0  0  0
 11 31  1  0  0  0
 11 32  1  0  0  0
 12 13  2  0  0  0
 12 14  2  0  0  0
 12 15  1  0  0  0
M  CHG  2   4   1  15  -1
M  END
> <s_m_source_file>
/cbio/jclab/home/rustenburg/PFK/Epik-Ligands/Results/InProgress/4-(2-HYDROXYETHYL)-1-PIPERAZINE ETHANESULFONIC ACID/pH_4.0/4-(2-HYDROXYETHYL)-1-PIPERAZINE ETHANESULFONIC ACID_pH_4.0-before_epik.mol2

> <i_m_source_file_index>
1

> <r_epik_Ionization_Penalty>
  0.2708

> <r_epik_Ionization_Penalty_Charging>
  0.0001

> <r_epik_Ionization_Penalty_Neutral>
  0.2706

> <r_epik_State_Penalty>
  0.4556

> <r_epik_Charging_Adjusted_Penalty>
0.45569952902634

> <i_epik_Tot_Q>
0

> <i_epik_Tot_abs_Q>
2

$$$$
EPE
                    3D
 Structure written by MMmdl.
 33 33  0  0  1  0            999 V2000
   61.6520   47.3370   51.6160 N   0  3  0  0  0  0
   63.0510   46.9050   51.9670 C   0  0  0  0  0  0
   63.9620   47.2570   50.7960 C   0  0  0  0  0  0
   63.5510   46.5440   49.5780 N   0  0  0  0  0  0
   62.1510   46.9100   49.2480 C   0  0  0  0  0  0
   61.2180   46.5540   50.4020 C   0  0  0  0  0  0
   64.3680   46.8930   48.3850 C   0  0  0  0  0  0
   65.8540   46.7210   48.6130 C   0  0  0  0  0  0
   66.2400   45.4000   48.9790 O   0  0  0  0  0  0
   60.6850   46.9920   52.7090 C   0  0  0  0  0  0
   60.8700   47.9740   53.8930 C   0  0  0  0  0  0
   59.5590   47.6920   55.0900 S   0  0  0  0  0  0
   59.7320   48.6940   56.1150 O   0  0  0  0  0  0
   59.7370   46.3270   55.5960 O   0  0  0  0  0  0
   58.3310   47.8630   54.3580 O   0  5  0  0  0  0
   63.3802   47.4310   52.8753 H   0  0  0  0  0  0
   63.0656   45.8198   52.1462 H   0  0  0  0  0  0
   63.9127   48.3393   50.6055 H   0  0  0  0  0  0
   64.9970   46.9742   51.0387 H   0  0  0  0  0  0
   62.0895   47.9921   49.0602 H   0  0  0  0  0  0
   61.8312   46.3630   48.3488 H   0  0  0  0  0  0
   61.2784   45.4774   50.6192 H   0  0  0  0  0  0
   60.1815   46.8188   50.1462 H   0  0  0  0  0  0
   64.0827   46.2452   47.5430 H   0  0  0  0  0  0
   64.1917   47.9446   48.1147 H   0  0  0  0  0  0
   66.3980   46.9719   47.6904 H   0  0  0  0  0  0
   66.1802   47.3886   49.4241 H   0  0  0  0  0  0
   67.2987   45.1687   49.1676 H   0  0  0  0  0  0
   59.6565   47.0692   52.3265 H   0  0  0  0  0  0
   60.8720   45.9641   53.0531 H   0  0  0  0  0  0
   61.8486   47.8000   54.3642 H   0  0  0  0  0  0
   60.8202   49.0086   53.5226 H   0  0  0  0  0  0
   61.6534   48.4252   51.4556 H   0  0  0  0  0  0
  1  2  1  0  0  0
  1  6  1  0  0  0
  1 10  1  0  0  0
  1 33  1  0  0  0
  2  3  1  0  0  0
  2 16  1  0  0  0
  2 17  1  0  0  0
  3  4  1  0  0  0
  3 18  1  0  0  0
  3 19  1  0  0  0
  4  5  1  0  0  0
  4  7  1  0  0  0
  5  6  1  0  0  0
  5 20  1  0  0  0
  5 21  1  0  0  0
  6 22  1  0  0  0
  6 23  1  0  0  0
  7  8  1  0  0  0
  7 24  1  0  0  0
  7 25  1  0  0  0
  8  9  1  0  0  0
  8 26  1  0  0  0
  8 27  1  0  0  0
  9 28  1  0  0  0
 10 11  1  0  0  0
 10 29  1  0  0  0
 10 30  1  0  0  0
 11 12  1  0  0  0
 11 31  1  0  0  0
 11 32  1  0  0  0
 12 13  2  0  0  0
 12 14  2  0  0  0
 12 15  1  0  0  0
M  CHG  2   1   1  15  -1
M  END
> <s_m_source_file>
/cbio/jclab/home/rustenburg/PFK/Epik-Ligands/Results/InProgress/4-(2-HYDROXYETHYL)-1-PIPERAZINE ETHANESULFONIC ACID/pH_4.0/4-(2-HYDROXYETHYL)-1-PIPERAZINE ETHANESULFONIC ACID_pH_4.0-before_epik.mol2

> <i_m_source_file_index>
1

> <r_epik_Ionization_Penalty>
  2.6704

> <r_epik_Ionization_Penalty_Charging>
  0.0003

> <r_epik_Ionization_Penalty_Neutral>
  2.6701

> <r_epik_State_Penalty>
  3.5647

> <r_epik_Charging_Adjusted_Penalty>
3.56499634730779

> <i_epik_Tot_Q>
0

> <i_epik_Tot_abs_Q>
2

$$$$
