COA
                    3D
 Structure written by MMmdl.
 79 81  0  0  1  0            999 V2000
   88.6040  -84.6940  -15.4010 N   0  0  0  0  0  0
   88.5170  -85.3620  -16.6140 C   0  0  0  0  0  0
   88.4530  -84.8110  -17.8270 N   0  0  0  0  0  0
   88.4890  -83.4640  -17.7910 C   0  0  0  0  0  0
   88.5780  -82.6230  -16.6440 C   0  0  0  0  0  0
   88.6370  -83.3150  -15.3450 C   0  0  0  0  0  0
   88.7190  -82.6940  -14.2090 N   0  0  0  0  0  0
   88.5930  -81.3110  -16.9840 N   0  0  0  0  0  0
   88.5140  -81.2930  -18.3130 C   0  0  0  0  0  0
   88.4440  -82.5690  -18.8600 N   0  0  0  0  0  0
   88.2830  -82.8930  -20.3050 C   0  0  1  0  0  0
   89.1690  -84.0030  -20.8100 C   0  0  2  0  0  0
   90.4930  -83.5370  -21.0680 O   0  0  0  0  0  0
   88.4470  -84.3520  -22.1030 C   0  0  2  0  0  0
   88.5340  -83.3380  -23.0200 O   0  0  0  0  0  0
   88.5670  -83.7630  -24.6320 P   0  0  0  0  0  0
   89.7760  -84.7730  -24.8120 O   0  0  0  0  0  0
   88.8680  -82.4540  -25.4620 O   0  5  0  0  0  0
   87.1870  -84.4450  -25.0050 O   0  5  0  0  0  0
   86.9970  -84.4910  -21.5560 C   0  0  2  0  0  0
   86.9570  -83.4610  -20.4760 O   0  0  0  0  0  0
   86.5780  -85.7930  -20.9340 C   0  0  0  0  0  0
   86.6630  -86.7650  -22.0150 O   0  0  0  0  0  0
   85.5120  -87.8990  -22.1320 P   0  0  0  0  0  0
   85.9730  -88.8420  -23.2310 O   0  0  0  0  0  0
   84.1350  -87.3250  -22.2760 O   0  5  0  0  0  0
   85.5440  -88.6720  -20.8060 O   0  0  0  0  0  0
   86.5260  -89.8380  -20.2320 P   0  0  0  0  0  0
   85.9410  -91.2220  -20.3870 O   0  0  0  0  0  0
   87.9130  -89.7660  -20.8150 O   0  5  0  0  0  0
   86.6310  -89.4110  -18.6740 O   0  0  0  0  0  0
   85.9600  -88.6360  -16.5360 C   0  0  0  0  0  0
   85.5210  -89.4080  -17.8120 C   0  0  0  0  0  0
   87.4920  -88.7900  -16.2100 C   0  0  0  0  0  0
   85.6020  -87.2100  -16.9500 C   0  0  0  0  0  0
   85.1850  -89.1370  -15.2540 C   0  0  1  0  0  0
   85.5020  -88.2660  -14.1280 O   0  0  0  0  0  0
   83.6680  -89.1660  -15.4160 C   0  0  0  0  0  0
   83.0890  -90.0690  -16.2240 O   0  0  0  0  0  0
   82.9960  -88.2770  -14.7190 N   0  0  0  0  0  0
   81.5360  -88.1930  -14.7460 C   0  0  0  0  0  0
   81.0500  -88.2840  -13.2980 C   0  0  0  0  0  0
   81.4830  -89.5720  -12.6330 C   0  0  0  0  0  0
   81.5080  -90.7220  -13.2480 O   0  0  0  0  0  0
   81.8280  -89.4210  -11.3700 N   0  0  0  0  0  0
   82.3050  -90.5540  -10.4610 C   0  0  0  0  0  0
   81.0660  -91.3020  -10.0080 C   0  0  0  0  0  0
   81.4370  -92.6410   -8.8190 S   0  5  0  0  0  0
   88.4990  -86.4230  -16.5720 H   0  0  0  0  0  0
   88.7598  -83.2668  -13.2708 H   0  0  0  0  0  0
   88.7477  -81.5947  -14.1840 H   0  0  0  0  0  0
   88.5050  -80.4030  -18.8910 H   0  0  0  0  0  0
   88.4770  -81.9515  -20.8397 H   0  0  0  0  0  0
   89.3598  -84.8274  -20.1072 H   0  0  0  0  0  0
   91.1454  -83.2437  -20.2324 H   0  0  0  0  0  0
   88.8713  -85.1623  -22.7140 H   0  0  0  0  0  0
   86.2834  -84.3952  -22.3877 H   0  0  0  0  0  0
   87.2605  -86.0410  -20.1077 H   0  0  0  0  0  0
   85.5523  -85.7014  -20.5474 H   0  0  0  0  0  0
   84.6753  -88.9064  -18.3050 H   0  0  0  0  0  0
   85.2421  -90.4441  -17.5697 H   0  0  0  0  0  0
   88.0860  -88.4540  -17.0727 H   0  0  0  0  0  0
   87.7175  -89.8456  -15.9983 H   0  0  0  0  0  0
   87.7432  -88.1780  -15.3311 H   0  0  0  0  0  0
   86.1780  -86.9326  -17.8451 H   0  0  0  0  0  0
   85.8437  -86.5184  -16.1295 H   0  0  0  0  0  0
   84.5265  -87.1522  -17.1735 H   0  0  0  0  0  0
   85.5087  -90.1600  -15.0118 H   0  0  0  0  0  0
   86.5501  -88.1036  -13.8363 H   0  0  0  0  0  0
   83.5757  -87.5785  -14.0977 H   0  0  0  0  0  0
   81.2320  -87.2366  -15.1965 H   0  0  0  0  0  0
   81.1319  -89.0242  -15.3425 H   0  0  0  0  0  0
   81.4621  -87.4441  -12.7195 H   0  0  0  0  0  0
   79.9511  -88.2397  -13.2766 H   0  0  0  0  0  0
   81.7547  -88.3956  -10.9785 H   0  0  0  0  0  0
   82.9779  -91.2173  -11.0242 H   0  0  0  0  0  0
   82.8431  -90.1313   -9.5998 H   0  0  0  0  0  0
   80.3736  -90.6017   -9.5181 H   0  0  0  0  0  0
   80.5724  -91.7559  -10.8800 H   0  0  0  0  0  0
  1  2  1  0  0  0
  1  6  2  0  0  0
  2  3  2  0  0  0
  2 49  1  0  0  0
  3  4  1  0  0  0
  4  5  2  0  0  0
  4 10  1  0  0  0
  5  6  1  0  0  0
  5  8  1  0  0  0
  6  7  1  0  0  0
  7 50  1  0  0  0
  7 51  1  0  0  0
  8  9  2  0  0  0
  9 10  1  0  0  0
  9 52  1  0  0  0
 10 11  1  0  0  0
 11 12  1  0  0  0
 11 21  1  0  0  0
 11 53  1  0  0  0
 12 13  1  0  0  0
 12 14  1  0  0  0
 12 54  1  0  0  0
 13 55  1  0  0  0
 14 15  1  0  0  0
 14 20  1  0  0  0
 14 56  1  0  0  0
 15 16  1  0  0  0
 16 17  2  0  0  0
 16 18  1  0  0  0
 16 19  1  0  0  0
 20 21  1  0  0  0
 20 22  1  0  0  0
 20 57  1  0  0  0
 22 23  1  0  0  0
 22 58  1  0  0  0
 22 59  1  0  0  0
 23 24  1  0  0  0
 24 25  2  0  0  0
 24 26  1  0  0  0
 24 27  1  0  0  0
 27 28  1  0  0  0
 28 29  2  0  0  0
 28 30  1  0  0  0
 28 31  1  0  0  0
 31 33  1  0  0  0
 32 33  1  0  0  0
 32 34  1  0  0  0
 32 35  1  0  0  0
 32 36  1  0  0  0
 33 60  1  0  0  0
 33 61  1  0  0  0
 34 62  1  0  0  0
 34 63  1  0  0  0
 34 64  1  0  0  0
 35 65  1  0  0  0
 35 66  1  0  0  0
 35 67  1  0  0  0
 36 37  1  0  0  0
 36 38  1  0  0  0
 36 68  1  0  0  0
 37 69  1  0  0  0
 38 39  2  0  0  0
 38 40  1  0  0  0
 40 41  1  0  0  0
 40 70  1  0  0  0
 41 42  1  0  0  0
 41 71  1  0  0  0
 41 72  1  0  0  0
 42 43  1  0  0  0
 42 73  1  0  0  0
 42 74  1  0  0  0
 43 44  2  0  0  0
 43 45  1  0  0  0
 45 46  1  0  0  0
 45 75  1  0  0  0
 46 47  1  0  0  0
 46 76  1  0  0  0
 46 77  1  0  0  0
 47 48  1  0  0  0
 47 78  1  0  0  0
 47 79  1  0  0  0
M  CHG  5  18  -1  19  -1  26  -1  30  -1  48  -1
M  END
> <s_m_source_file>
/cbio/jclab/home/rustenburg/PFK/Epik-Ligands/Results/InProgress/COENZYME A/pH_10.0/COENZYME A_pH_10.0-before_epik.mol2

> <i_m_source_file_index>
1

> <r_lp_tautomer_probability>
0.999997216410988

> <r_epik_Ionization_Penalty>
  0.1301

> <r_epik_Ionization_Penalty_Charging>
  0.1140

> <r_epik_Ionization_Penalty_Neutral>
  0.0162

> <r_epik_State_Penalty>
  0.1237

> <r_epik_Charging_Adjusted_Penalty>
0.23765423753065

> <i_epik_Tot_Q>
-5

> <i_epik_Tot_abs_Q>
5

> <s_epik_Chemistry_Notes>
This compound contains an acetal/aminal-like group ( X-CH(R)-Y where X, Y are N, S, or O) that may be acid/base labile, releasing an aldehyde.

$$$$
COA
                    3D
 Structure written by MMmdl.
 80 82  0  0  1  0            999 V2000
   88.6040  -84.6940  -15.4010 N   0  0  0  0  0  0
   88.5170  -85.3620  -16.6140 C   0  0  0  0  0  0
   88.4530  -84.8110  -17.8270 N   0  0  0  0  0  0
   88.4890  -83.4640  -17.7910 C   0  0  0  0  0  0
   88.5780  -82.6230  -16.6440 C   0  0  0  0  0  0
   88.6370  -83.3150  -15.3450 C   0  0  0  0  0  0
   88.7190  -82.6940  -14.2090 N   0  0  0  0  0  0
   88.5930  -81.3110  -16.9840 N   0  0  0  0  0  0
   88.5140  -81.2930  -18.3130 C   0  0  0  0  0  0
   88.4440  -82.5690  -18.8600 N   0  0  0  0  0  0
   88.2830  -82.8930  -20.3050 C   0  0  1  0  0  0
   89.1690  -84.0030  -20.8100 C   0  0  2  0  0  0
   90.4930  -83.5370  -21.0680 O   0  0  0  0  0  0
   88.4470  -84.3520  -22.1030 C   0  0  2  0  0  0
   88.5340  -83.3380  -23.0200 O   0  0  0  0  0  0
   88.5670  -83.7630  -24.6320 P   0  0  0  0  0  0
   89.7760  -84.7730  -24.8120 O   0  0  0  0  0  0
   88.8680  -82.4540  -25.4620 O   0  5  0  0  0  0
   87.1870  -84.4450  -25.0050 O   0  5  0  0  0  0
   86.9970  -84.4910  -21.5560 C   0  0  2  0  0  0
   86.9570  -83.4610  -20.4760 O   0  0  0  0  0  0
   86.5780  -85.7930  -20.9340 C   0  0  0  0  0  0
   86.6630  -86.7650  -22.0150 O   0  0  0  0  0  0
   85.5120  -87.8990  -22.1320 P   0  0  0  0  0  0
   85.9730  -88.8420  -23.2310 O   0  0  0  0  0  0
   84.1350  -87.3250  -22.2760 O   0  5  0  0  0  0
   85.5440  -88.6720  -20.8060 O   0  0  0  0  0  0
   86.5260  -89.8380  -20.2320 P   0  0  0  0  0  0
   85.9410  -91.2220  -20.3870 O   0  0  0  0  0  0
   87.9130  -89.7660  -20.8150 O   0  5  0  0  0  0
   86.6310  -89.4110  -18.6740 O   0  0  0  0  0  0
   85.9600  -88.6360  -16.5360 C   0  0  0  0  0  0
   85.5210  -89.4080  -17.8120 C   0  0  0  0  0  0
   87.4920  -88.7900  -16.2100 C   0  0  0  0  0  0
   85.6020  -87.2100  -16.9500 C   0  0  0  0  0  0
   85.1850  -89.1370  -15.2540 C   0  0  1  0  0  0
   85.5020  -88.2660  -14.1280 O   0  0  0  0  0  0
   83.6680  -89.1660  -15.4160 C   0  0  0  0  0  0
   83.0890  -90.0690  -16.2240 O   0  0  0  0  0  0
   82.9960  -88.2770  -14.7190 N   0  0  0  0  0  0
   81.5360  -88.1930  -14.7460 C   0  0  0  0  0  0
   81.0500  -88.2840  -13.2980 C   0  0  0  0  0  0
   81.4830  -89.5720  -12.6330 C   0  0  0  0  0  0
   81.5080  -90.7220  -13.2480 O   0  0  0  0  0  0
   81.8280  -89.4210  -11.3700 N   0  0  0  0  0  0
   82.3050  -90.5540  -10.4610 C   0  0  0  0  0  0
   81.0660  -91.3020  -10.0080 C   0  0  0  0  0  0
   81.4370  -92.6410   -8.8190 S   0  0  0  0  0  0
   88.4990  -86.4230  -16.5720 H   0  0  0  0  0  0
   88.7598  -83.2668  -13.2708 H   0  0  0  0  0  0
   88.7477  -81.5947  -14.1840 H   0  0  0  0  0  0
   88.5050  -80.4030  -18.8910 H   0  0  0  0  0  0
   88.4770  -81.9515  -20.8397 H   0  0  0  0  0  0
   89.3598  -84.8274  -20.1072 H   0  0  0  0  0  0
   91.1454  -83.2437  -20.2324 H   0  0  0  0  0  0
   88.8713  -85.1623  -22.7140 H   0  0  0  0  0  0
   86.2834  -84.3952  -22.3877 H   0  0  0  0  0  0
   87.2605  -86.0410  -20.1077 H   0  0  0  0  0  0
   85.5523  -85.7014  -20.5474 H   0  0  0  0  0  0
   84.6753  -88.9064  -18.3050 H   0  0  0  0  0  0
   85.2421  -90.4441  -17.5697 H   0  0  0  0  0  0
   88.0860  -88.4540  -17.0727 H   0  0  0  0  0  0
   87.7175  -89.8456  -15.9983 H   0  0  0  0  0  0
   87.7432  -88.1780  -15.3311 H   0  0  0  0  0  0
   86.1780  -86.9326  -17.8451 H   0  0  0  0  0  0
   85.8437  -86.5184  -16.1295 H   0  0  0  0  0  0
   84.5265  -87.1522  -17.1735 H   0  0  0  0  0  0
   85.5087  -90.1600  -15.0118 H   0  0  0  0  0  0
   86.5501  -88.1036  -13.8363 H   0  0  0  0  0  0
   83.5757  -87.5785  -14.0977 H   0  0  0  0  0  0
   81.2320  -87.2366  -15.1965 H   0  0  0  0  0  0
   81.1319  -89.0242  -15.3425 H   0  0  0  0  0  0
   81.4621  -87.4441  -12.7195 H   0  0  0  0  0  0
   79.9511  -88.2397  -13.2766 H   0  0  0  0  0  0
   81.7547  -88.3956  -10.9785 H   0  0  0  0  0  0
   82.9779  -91.2173  -11.0242 H   0  0  0  0  0  0
   82.8431  -90.1313   -9.5998 H   0  0  0  0  0  0
   80.3736  -90.6017   -9.5181 H   0  0  0  0  0  0
   80.5724  -91.7559  -10.8800 H   0  0  0  0  0  0
   80.6217  -93.2588   -8.4145 H   0  0  0  0  0  0
  1  2  1  0  0  0
  1  6  2  0  0  0
  2  3  2  0  0  0
  2 49  1  0  0  0
  3  4  1  0  0  0
  4  5  2  0  0  0
  4 10  1  0  0  0
  5  6  1  0  0  0
  5  8  1  0  0  0
  6  7  1  0  0  0
  7 50  1  0  0  0
  7 51  1  0  0  0
  8  9  2  0  0  0
  9 10  1  0  0  0
  9 52  1  0  0  0
 10 11  1  0  0  0
 11 12  1  0  0  0
 11 21  1  0  0  0
 11 53  1  0  0  0
 12 13  1  0  0  0
 12 14  1  0  0  0
 12 54  1  0  0  0
 13 55  1  0  0  0
 14 15  1  0  0  0
 14 20  1  0  0  0
 14 56  1  0  0  0
 15 16  1  0  0  0
 16 17  2  0  0  0
 16 18  1  0  0  0
 16 19  1  0  0  0
 20 21  1  0  0  0
 20 22  1  0  0  0
 20 57  1  0  0  0
 22 23  1  0  0  0
 22 58  1  0  0  0
 22 59  1  0  0  0
 23 24  1  0  0  0
 24 25  2  0  0  0
 24 26  1  0  0  0
 24 27  1  0  0  0
 27 28  1  0  0  0
 28 29  2  0  0  0
 28 30  1  0  0  0
 28 31  1  0  0  0
 31 33  1  0  0  0
 32 33  1  0  0  0
 32 34  1  0  0  0
 32 35  1  0  0  0
 32 36  1  0  0  0
 33 60  1  0  0  0
 33 61  1  0  0  0
 34 62  1  0  0  0
 34 63  1  0  0  0
 34 64  1  0  0  0
 35 65  1  0  0  0
 35 66  1  0  0  0
 35 67  1  0  0  0
 36 37  1  0  0  0
 36 38  1  0  0  0
 36 68  1  0  0  0
 37 69  1  0  0  0
 38 39  2  0  0  0
 38 40  1  0  0  0
 40 41  1  0  0  0
 40 70  1  0  0  0
 41 42  1  0  0  0
 41 71  1  0  0  0
 41 72  1  0  0  0
 42 43  1  0  0  0
 42 73  1  0  0  0
 42 74  1  0  0  0
 43 44  2  0  0  0
 43 45  1  0  0  0
 45 46  1  0  0  0
 45 75  1  0  0  0
 46 47  1  0  0  0
 46 76  1  0  0  0
 46 77  1  0  0  0
 47 48  1  0  0  0
 47 78  1  0  0  0
 47 79  1  0  0  0
 48 80  1  0  0  0
M  CHG  4  18  -1  19  -1  26  -1  30  -1
M  END
> <s_m_source_file>
/cbio/jclab/home/rustenburg/PFK/Epik-Ligands/Results/InProgress/COENZYME A/pH_10.0/COENZYME A_pH_10.0-before_epik.mol2

> <i_m_source_file_index>
1

> <r_lp_tautomer_probability>
0.999997216410988

> <r_epik_Ionization_Penalty>
  1.0494

> <r_epik_Ionization_Penalty_Charging>
  0.0001

> <r_epik_Ionization_Penalty_Neutral>
  1.0493

> <r_epik_State_Penalty>
  1.0854

> <r_epik_Charging_Adjusted_Penalty>
1.08550760493652

> <i_epik_Tot_Q>
-4

> <i_epik_Tot_abs_Q>
4

> <s_epik_Chemistry_Notes>
This compound contains an acetal/aminal-like group ( X-CH(R)-Y where X, Y are N, S, or O) that may be acid/base labile, releasing an aldehyde.

$$$$
COA
                    3D
 Structure written by MMmdl.
 78 80  0  0  1  0            999 V2000
   88.6040  -84.6940  -15.4010 N   0  0  0  0  0  0
   88.5170  -85.3620  -16.6140 C   0  0  0  0  0  0
   88.4530  -84.8110  -17.8270 N   0  0  0  0  0  0
   88.4890  -83.4640  -17.7910 C   0  0  0  0  0  0
   88.5780  -82.6230  -16.6440 C   0  0  0  0  0  0
   88.6370  -83.3150  -15.3450 C   0  0  0  0  0  0
   88.7190  -82.6940  -14.2090 N   0  0  0  0  0  0
   88.5930  -81.3110  -16.9840 N   0  0  0  0  0  0
   88.5140  -81.2930  -18.3130 C   0  0  0  0  0  0
   88.4440  -82.5690  -18.8600 N   0  0  0  0  0  0
   88.2830  -82.8930  -20.3050 C   0  0  1  0  0  0
   89.1690  -84.0030  -20.8100 C   0  0  2  0  0  0
   90.4930  -83.5370  -21.0680 O   0  5  0  0  0  0
   88.4470  -84.3520  -22.1030 C   0  0  2  0  0  0
   88.5340  -83.3380  -23.0200 O   0  0  0  0  0  0
   88.5670  -83.7630  -24.6320 P   0  0  0  0  0  0
   89.7760  -84.7730  -24.8120 O   0  0  0  0  0  0
   88.8680  -82.4540  -25.4620 O   0  5  0  0  0  0
   87.1870  -84.4450  -25.0050 O   0  5  0  0  0  0
   86.9970  -84.4910  -21.5560 C   0  0  2  0  0  0
   86.9570  -83.4610  -20.4760 O   0  0  0  0  0  0
   86.5780  -85.7930  -20.9340 C   0  0  0  0  0  0
   86.6630  -86.7650  -22.0150 O   0  0  0  0  0  0
   85.5120  -87.8990  -22.1320 P   0  0  0  0  0  0
   85.9730  -88.8420  -23.2310 O   0  0  0  0  0  0
   84.1350  -87.3250  -22.2760 O   0  5  0  0  0  0
   85.5440  -88.6720  -20.8060 O   0  0  0  0  0  0
   86.5260  -89.8380  -20.2320 P   0  0  0  0  0  0
   85.9410  -91.2220  -20.3870 O   0  0  0  0  0  0
   87.9130  -89.7660  -20.8150 O   0  5  0  0  0  0
   86.6310  -89.4110  -18.6740 O   0  0  0  0  0  0
   85.9600  -88.6360  -16.5360 C   0  0  0  0  0  0
   85.5210  -89.4080  -17.8120 C   0  0  0  0  0  0
   87.4920  -88.7900  -16.2100 C   0  0  0  0  0  0
   85.6020  -87.2100  -16.9500 C   0  0  0  0  0  0
   85.1850  -89.1370  -15.2540 C   0  0  1  0  0  0
   85.5020  -88.2660  -14.1280 O   0  0  0  0  0  0
   83.6680  -89.1660  -15.4160 C   0  0  0  0  0  0
   83.0890  -90.0690  -16.2240 O   0  0  0  0  0  0
   82.9960  -88.2770  -14.7190 N   0  0  0  0  0  0
   81.5360  -88.1930  -14.7460 C   0  0  0  0  0  0
   81.0500  -88.2840  -13.2980 C   0  0  0  0  0  0
   81.4830  -89.5720  -12.6330 C   0  0  0  0  0  0
   81.5080  -90.7220  -13.2480 O   0  0  0  0  0  0
   81.8280  -89.4210  -11.3700 N   0  0  0  0  0  0
   82.3050  -90.5540  -10.4610 C   0  0  0  0  0  0
   81.0660  -91.3020  -10.0080 C   0  0  0  0  0  0
   81.4370  -92.6410   -8.8190 S   0  5  0  0  0  0
   88.4990  -86.4230  -16.5720 H   0  0  0  0  0  0
   88.7598  -83.2668  -13.2708 H   0  0  0  0  0  0
   88.7477  -81.5947  -14.1840 H   0  0  0  0  0  0
   88.5050  -80.4030  -18.8910 H   0  0  0  0  0  0
   88.4770  -81.9515  -20.8397 H   0  0  0  0  0  0
   89.3598  -84.8274  -20.1072 H   0  0  0  0  0  0
   88.8713  -85.1623  -22.7140 H   0  0  0  0  0  0
   86.2834  -84.3952  -22.3877 H   0  0  0  0  0  0
   87.2605  -86.0410  -20.1077 H   0  0  0  0  0  0
   85.5523  -85.7014  -20.5474 H   0  0  0  0  0  0
   84.6753  -88.9064  -18.3050 H   0  0  0  0  0  0
   85.2421  -90.4441  -17.5697 H   0  0  0  0  0  0
   88.0860  -88.4540  -17.0727 H   0  0  0  0  0  0
   87.7175  -89.8456  -15.9983 H   0  0  0  0  0  0
   87.7432  -88.1780  -15.3311 H   0  0  0  0  0  0
   86.1780  -86.9326  -17.8451 H   0  0  0  0  0  0
   85.8437  -86.5184  -16.1295 H   0  0  0  0  0  0
   84.5265  -87.1522  -17.1735 H   0  0  0  0  0  0
   85.5087  -90.1600  -15.0118 H   0  0  0  0  0  0
   86.5501  -88.1036  -13.8363 H   0  0  0  0  0  0
   83.5757  -87.5785  -14.0977 H   0  0  0  0  0  0
   81.2320  -87.2366  -15.1965 H   0  0  0  0  0  0
   81.1319  -89.0242  -15.3425 H   0  0  0  0  0  0
   81.4621  -87.4441  -12.7195 H   0  0  0  0  0  0
   79.9511  -88.2397  -13.2766 H   0  0  0  0  0  0
   81.7547  -88.3956  -10.9785 H   0  0  0  0  0  0
   82.9779  -91.2173  -11.0242 H   0  0  0  0  0  0
   82.8431  -90.1313   -9.5998 H   0  0  0  0  0  0
   80.3736  -90.6017   -9.5181 H   0  0  0  0  0  0
   80.5724  -91.7559  -10.8800 H   0  0  0  0  0  0
  1  2  1  0  0  0
  1  6  2  0  0  0
  2  3  2  0  0  0
  2 49  1  0  0  0
  3  4  1  0  0  0
  4  5  2  0  0  0
  4 10  1  0  0  0
  5  6  1  0  0  0
  5  8  1  0  0  0
  6  7  1  0  0  0
  7 50  1  0  0  0
  7 51  1  0  0  0
  8  9  2  0  0  0
  9 10  1  0  0  0
  9 52  1  0  0  0
 10 11  1  0  0  0
 11 12  1  0  0  0
 11 21  1  0  0  0
 11 53  1  0  0  0
 12 13  1  0  0  0
 12 14  1  0  0  0
 12 54  1  0  0  0
 14 15  1  0  0  0
 14 20  1  0  0  0
 14 55  1  0  0  0
 15 16  1  0  0  0
 16 17  2  0  0  0
 16 18  1  0  0  0
 16 19  1  0  0  0
 20 21  1  0  0  0
 20 22  1  0  0  0
 20 56  1  0  0  0
 22 23  1  0  0  0
 22 57  1  0  0  0
 22 58  1  0  0  0
 23 24  1  0  0  0
 24 25  2  0  0  0
 24 26  1  0  0  0
 24 27  1  0  0  0
 27 28  1  0  0  0
 28 29  2  0  0  0
 28 30  1  0  0  0
 28 31  1  0  0  0
 31 33  1  0  0  0
 32 33  1  0  0  0
 32 34  1  0  0  0
 32 35  1  0  0  0
 32 36  1  0  0  0
 33 59  1  0  0  0
 33 60  1  0  0  0
 34 61  1  0  0  0
 34 62  1  0  0  0
 34 63  1  0  0  0
 35 64  1  0  0  0
 35 65  1  0  0  0
 35 66  1  0  0  0
 36 37  1  0  0  0
 36 38  1  0  0  0
 36 67  1  0  0  0
 37 68  1  0  0  0
 38 39  2  0  0  0
 38 40  1  0  0  0
 40 41  1  0  0  0
 40 69  1  0  0  0
 41 42  1  0  0  0
 41 70  1  0  0  0
 41 71  1  0  0  0
 42 43  1  0  0  0
 42 72  1  0  0  0
 42 73  1  0  0  0
 43 44  2  0  0  0
 43 45  1  0  0  0
 45 46  1  0  0  0
 45 74  1  0  0  0
 46 47  1  0  0  0
 46 75  1  0  0  0
 46 76  1  0  0  0
 47 48  1  0  0  0
 47 77  1  0  0  0
 47 78  1  0  0  0
M  CHG  6  13  -1  18  -1  19  -1  26  -1  30  -1  48  -1
M  END
> <s_m_source_file>
/cbio/jclab/home/rustenburg/PFK/Epik-Ligands/Results/InProgress/COENZYME A/pH_10.0/COENZYME A_pH_10.0-before_epik.mol2

> <i_m_source_file_index>
1

> <r_lp_tautomer_probability>
0.999997216410988

> <r_epik_Ionization_Penalty>
  2.3065

> <r_epik_Ionization_Penalty_Charging>
  2.3053

> <r_epik_Ionization_Penalty_Neutral>
  0.0013

> <r_epik_State_Penalty>
  2.2440

> <r_epik_Charging_Adjusted_Penalty>
4.5492362309384

> <i_epik_Tot_Q>
-6

> <i_epik_Tot_abs_Q>
6

> <s_epik_Chemistry_Notes>
This compound contains an acetal/aminal-like group ( X-CH(R)-Y where X, Y are N, S, or O) that may be acid/base labile, releasing an aldehyde.

$$$$
COA
                    3D
 Structure written by MMmdl.
 79 81  0  0  1  0            999 V2000
   88.6040  -84.6940  -15.4010 N   0  0  0  0  0  0
   88.5170  -85.3620  -16.6140 C   0  0  0  0  0  0
   88.4530  -84.8110  -17.8270 N   0  0  0  0  0  0
   88.4890  -83.4640  -17.7910 C   0  0  0  0  0  0
   88.5780  -82.6230  -16.6440 C   0  0  0  0  0  0
   88.6370  -83.3150  -15.3450 C   0  0  0  0  0  0
   88.7190  -82.6940  -14.2090 N   0  0  0  0  0  0
   88.5930  -81.3110  -16.9840 N   0  0  0  0  0  0
   88.5140  -81.2930  -18.3130 C   0  0  0  0  0  0
   88.4440  -82.5690  -18.8600 N   0  0  0  0  0  0
   88.2830  -82.8930  -20.3050 C   0  0  1  0  0  0
   89.1690  -84.0030  -20.8100 C   0  0  2  0  0  0
   90.4930  -83.5370  -21.0680 O   0  5  0  0  0  0
   88.4470  -84.3520  -22.1030 C   0  0  2  0  0  0
   88.5340  -83.3380  -23.0200 O   0  0  0  0  0  0
   88.5670  -83.7630  -24.6320 P   0  0  0  0  0  0
   89.7760  -84.7730  -24.8120 O   0  0  0  0  0  0
   88.8680  -82.4540  -25.4620 O   0  5  0  0  0  0
   87.1870  -84.4450  -25.0050 O   0  5  0  0  0  0
   86.9970  -84.4910  -21.5560 C   0  0  2  0  0  0
   86.9570  -83.4610  -20.4760 O   0  0  0  0  0  0
   86.5780  -85.7930  -20.9340 C   0  0  0  0  0  0
   86.6630  -86.7650  -22.0150 O   0  0  0  0  0  0
   85.5120  -87.8990  -22.1320 P   0  0  0  0  0  0
   85.9730  -88.8420  -23.2310 O   0  0  0  0  0  0
   84.1350  -87.3250  -22.2760 O   0  5  0  0  0  0
   85.5440  -88.6720  -20.8060 O   0  0  0  0  0  0
   86.5260  -89.8380  -20.2320 P   0  0  0  0  0  0
   85.9410  -91.2220  -20.3870 O   0  0  0  0  0  0
   87.9130  -89.7660  -20.8150 O   0  5  0  0  0  0
   86.6310  -89.4110  -18.6740 O   0  0  0  0  0  0
   85.9600  -88.6360  -16.5360 C   0  0  0  0  0  0
   85.5210  -89.4080  -17.8120 C   0  0  0  0  0  0
   87.4920  -88.7900  -16.2100 C   0  0  0  0  0  0
   85.6020  -87.2100  -16.9500 C   0  0  0  0  0  0
   85.1850  -89.1370  -15.2540 C   0  0  1  0  0  0
   85.5020  -88.2660  -14.1280 O   0  0  0  0  0  0
   83.6680  -89.1660  -15.4160 C   0  0  0  0  0  0
   83.0890  -90.0690  -16.2240 O   0  0  0  0  0  0
   82.9960  -88.2770  -14.7190 N   0  0  0  0  0  0
   81.5360  -88.1930  -14.7460 C   0  0  0  0  0  0
   81.0500  -88.2840  -13.2980 C   0  0  0  0  0  0
   81.4830  -89.5720  -12.6330 C   0  0  0  0  0  0
   81.5080  -90.7220  -13.2480 O   0  0  0  0  0  0
   81.8280  -89.4210  -11.3700 N   0  0  0  0  0  0
   82.3050  -90.5540  -10.4610 C   0  0  0  0  0  0
   81.0660  -91.3020  -10.0080 C   0  0  0  0  0  0
   81.4370  -92.6410   -8.8190 S   0  0  0  0  0  0
   88.4990  -86.4230  -16.5720 H   0  0  0  0  0  0
   88.7598  -83.2668  -13.2708 H   0  0  0  0  0  0
   88.7477  -81.5947  -14.1840 H   0  0  0  0  0  0
   88.5050  -80.4030  -18.8910 H   0  0  0  0  0  0
   88.4770  -81.9515  -20.8397 H   0  0  0  0  0  0
   89.3598  -84.8274  -20.1072 H   0  0  0  0  0  0
   88.8713  -85.1623  -22.7140 H   0  0  0  0  0  0
   86.2834  -84.3952  -22.3877 H   0  0  0  0  0  0
   87.2605  -86.0410  -20.1077 H   0  0  0  0  0  0
   85.5523  -85.7014  -20.5474 H   0  0  0  0  0  0
   84.6753  -88.9064  -18.3050 H   0  0  0  0  0  0
   85.2421  -90.4441  -17.5697 H   0  0  0  0  0  0
   88.0860  -88.4540  -17.0727 H   0  0  0  0  0  0
   87.7175  -89.8456  -15.9983 H   0  0  0  0  0  0
   87.7432  -88.1780  -15.3311 H   0  0  0  0  0  0
   86.1780  -86.9326  -17.8451 H   0  0  0  0  0  0
   85.8437  -86.5184  -16.1295 H   0  0  0  0  0  0
   84.5265  -87.1522  -17.1735 H   0  0  0  0  0  0
   85.5087  -90.1600  -15.0118 H   0  0  0  0  0  0
   86.5501  -88.1036  -13.8363 H   0  0  0  0  0  0
   83.5757  -87.5785  -14.0977 H   0  0  0  0  0  0
   81.2320  -87.2366  -15.1965 H   0  0  0  0  0  0
   81.1319  -89.0242  -15.3425 H   0  0  0  0  0  0
   81.4621  -87.4441  -12.7195 H   0  0  0  0  0  0
   79.9511  -88.2397  -13.2766 H   0  0  0  0  0  0
   81.7547  -88.3956  -10.9785 H   0  0  0  0  0  0
   82.9779  -91.2173  -11.0242 H   0  0  0  0  0  0
   82.8431  -90.1313   -9.5998 H   0  0  0  0  0  0
   80.3736  -90.6017   -9.5181 H   0  0  0  0  0  0
   80.5724  -91.7559  -10.8800 H   0  0  0  0  0  0
   80.6217  -93.2588   -8.4145 H   0  0  0  0  0  0
  1  2  1  0  0  0
  1  6  2  0  0  0
  2  3  2  0  0  0
  2 49  1  0  0  0
  3  4  1  0  0  0
  4  5  2  0  0  0
  4 10  1  0  0  0
  5  6  1  0  0  0
  5  8  1  0  0  0
  6  7  1  0  0  0
  7 50  1  0  0  0
  7 51  1  0  0  0
  8  9  2  0  0  0
  9 10  1  0  0  0
  9 52  1  0  0  0
 10 11  1  0  0  0
 11 12  1  0  0  0
 11 21  1  0  0  0
 11 53  1  0  0  0
 12 13  1  0  0  0
 12 14  1  0  0  0
 12 54  1  0  0  0
 14 15  1  0  0  0
 14 20  1  0  0  0
 14 55  1  0  0  0
 15 16  1  0  0  0
 16 17  2  0  0  0
 16 18  1  0  0  0
 16 19  1  0  0  0
 20 21  1  0  0  0
 20 22  1  0  0  0
 20 56  1  0  0  0
 22 23  1  0  0  0
 22 57  1  0  0  0
 22 58  1  0  0  0
 23 24  1  0  0  0
 24 25  2  0  0  0
 24 26  1  0  0  0
 24 27  1  0  0  0
 27 28  1  0  0  0
 28 29  2  0  0  0
 28 30  1  0  0  0
 28 31  1  0  0  0
 31 33  1  0  0  0
 32 33  1  0  0  0
 32 34  1  0  0  0
 32 35  1  0  0  0
 32 36  1  0  0  0
 33 59  1  0  0  0
 33 60  1  0  0  0
 34 61  1  0  0  0
 34 62  1  0  0  0
 34 63  1  0  0  0
 35 64  1  0  0  0
 35 65  1  0  0  0
 35 66  1  0  0  0
 36 37  1  0  0  0
 36 38  1  0  0  0
 36 67  1  0  0  0
 37 68  1  0  0  0
 38 39  2  0  0  0
 38 40  1  0  0  0
 40 41  1  0  0  0
 40 69  1  0  0  0
 41 42  1  0  0  0
 41 70  1  0  0  0
 41 71  1  0  0  0
 42 43  1  0  0  0
 42 72  1  0  0  0
 42 73  1  0  0  0
 43 44  2  0  0  0
 43 45  1  0  0  0
 45 46  1  0  0  0
 45 74  1  0  0  0
 46 47  1  0  0  0
 46 75  1  0  0  0
 46 76  1  0  0  0
 47 48  1  0  0  0
 47 77  1  0  0  0
 47 78  1  0  0  0
 48 79  1  0  0  0
M  CHG  5  13  -1  18  -1  19  -1  26  -1  30  -1
M  END
> <s_m_source_file>
/cbio/jclab/home/rustenburg/PFK/Epik-Ligands/Results/InProgress/COENZYME A/pH_10.0/COENZYME A_pH_10.0-before_epik.mol2

> <i_m_source_file_index>
1

> <r_epik_Ionization_Penalty>
  3.2258

> <r_epik_Ionization_Penalty_Charging>
  2.1914

> <r_epik_Ionization_Penalty_Neutral>
  1.0344

> <r_epik_State_Penalty>
  3.2450

> <r_epik_Charging_Adjusted_Penalty>
5.43637578685339

> <i_epik_Tot_Q>
-5

> <i_epik_Tot_abs_Q>
5

> <s_epik_Chemistry_Notes>
This compound contains an acetal/aminal-like group ( X-CH(R)-Y where X, Y are N, S, or O) that may be acid/base labile, releasing an aldehyde.

$$$$
COA
                    3D
 Structure written by MMmdl.
 78 80  0  0  1  0            999 V2000
   88.6040  -84.6940  -15.4010 N   0  0  0  0  0  0
   88.5170  -85.3620  -16.6140 C   0  0  0  0  0  0
   88.4530  -84.8110  -17.8270 N   0  0  0  0  0  0
   88.4890  -83.4640  -17.7910 C   0  0  0  0  0  0
   88.5780  -82.6230  -16.6440 C   0  0  0  0  0  0
   88.6370  -83.3150  -15.3450 C   0  0  0  0  0  0
   88.7190  -82.6940  -14.2090 N   0  0  0  0  0  0
   88.5930  -81.3110  -16.9840 N   0  0  0  0  0  0
   88.5140  -81.2930  -18.3130 C   0  0  0  0  0  0
   88.4440  -82.5690  -18.8600 N   0  0  0  0  0  0
   88.2830  -82.8930  -20.3050 C   0  0  1  0  0  0
   89.1690  -84.0030  -20.8100 C   0  0  2  0  0  0
   90.4930  -83.5370  -21.0680 O   0  0  0  0  0  0
   88.4470  -84.3520  -22.1030 C   0  0  2  0  0  0
   88.5340  -83.3380  -23.0200 O   0  0  0  0  0  0
   88.5670  -83.7630  -24.6320 P   0  0  0  0  0  0
   89.7760  -84.7730  -24.8120 O   0  0  0  0  0  0
   88.8680  -82.4540  -25.4620 O   0  5  0  0  0  0
   87.1870  -84.4450  -25.0050 O   0  5  0  0  0  0
   86.9970  -84.4910  -21.5560 C   0  0  2  0  0  0
   86.9570  -83.4610  -20.4760 O   0  0  0  0  0  0
   86.5780  -85.7930  -20.9340 C   0  0  0  0  0  0
   86.6630  -86.7650  -22.0150 O   0  0  0  0  0  0
   85.5120  -87.8990  -22.1320 P   0  0  0  0  0  0
   85.9730  -88.8420  -23.2310 O   0  0  0  0  0  0
   84.1350  -87.3250  -22.2760 O   0  5  0  0  0  0
   85.5440  -88.6720  -20.8060 O   0  0  0  0  0  0
   86.5260  -89.8380  -20.2320 P   0  0  0  0  0  0
   85.9410  -91.2220  -20.3870 O   0  0  0  0  0  0
   87.9130  -89.7660  -20.8150 O   0  5  0  0  0  0
   86.6310  -89.4110  -18.6740 O   0  0  0  0  0  0
   85.9600  -88.6360  -16.5360 C   0  0  0  0  0  0
   85.5210  -89.4080  -17.8120 C   0  0  0  0  0  0
   87.4920  -88.7900  -16.2100 C   0  0  0  0  0  0
   85.6020  -87.2100  -16.9500 C   0  0  0  0  0  0
   85.1850  -89.1370  -15.2540 C   0  0  1  0  0  0
   85.5020  -88.2660  -14.1280 O   0  5  0  0  0  0
   83.6680  -89.1660  -15.4160 C   0  0  0  0  0  0
   83.0890  -90.0690  -16.2240 O   0  0  0  0  0  0
   82.9960  -88.2770  -14.7190 N   0  0  0  0  0  0
   81.5360  -88.1930  -14.7460 C   0  0  0  0  0  0
   81.0500  -88.2840  -13.2980 C   0  0  0  0  0  0
   81.4830  -89.5720  -12.6330 C   0  0  0  0  0  0
   81.5080  -90.7220  -13.2480 O   0  0  0  0  0  0
   81.8280  -89.4210  -11.3700 N   0  0  0  0  0  0
   82.3050  -90.5540  -10.4610 C   0  0  0  0  0  0
   81.0660  -91.3020  -10.0080 C   0  0  0  0  0  0
   81.4370  -92.6410   -8.8190 S   0  5  0  0  0  0
   88.4990  -86.4230  -16.5720 H   0  0  0  0  0  0
   88.7598  -83.2668  -13.2708 H   0  0  0  0  0  0
   88.7477  -81.5947  -14.1840 H   0  0  0  0  0  0
   88.5050  -80.4030  -18.8910 H   0  0  0  0  0  0
   88.4770  -81.9515  -20.8397 H   0  0  0  0  0  0
   89.3598  -84.8274  -20.1072 H   0  0  0  0  0  0
   91.1454  -83.2437  -20.2324 H   0  0  0  0  0  0
   88.8713  -85.1623  -22.7140 H   0  0  0  0  0  0
   86.2834  -84.3952  -22.3877 H   0  0  0  0  0  0
   87.2605  -86.0410  -20.1077 H   0  0  0  0  0  0
   85.5523  -85.7014  -20.5474 H   0  0  0  0  0  0
   84.6753  -88.9064  -18.3050 H   0  0  0  0  0  0
   85.2421  -90.4441  -17.5697 H   0  0  0  0  0  0
   88.0860  -88.4540  -17.0727 H   0  0  0  0  0  0
   87.7175  -89.8456  -15.9983 H   0  0  0  0  0  0
   87.7432  -88.1780  -15.3311 H   0  0  0  0  0  0
   86.1780  -86.9326  -17.8451 H   0  0  0  0  0  0
   85.8437  -86.5184  -16.1295 H   0  0  0  0  0  0
   84.5265  -87.1522  -17.1735 H   0  0  0  0  0  0
   85.5087  -90.1600  -15.0118 H   0  0  0  0  0  0
   83.5757  -87.5785  -14.0977 H   0  0  0  0  0  0
   81.2320  -87.2366  -15.1965 H   0  0  0  0  0  0
   81.1319  -89.0242  -15.3425 H   0  0  0  0  0  0
   81.4621  -87.4441  -12.7195 H   0  0  0  0  0  0
   79.9511  -88.2397  -13.2766 H   0  0  0  0  0  0
   81.7547  -88.3956  -10.9785 H   0  0  0  0  0  0
   82.9779  -91.2173  -11.0242 H   0  0  0  0  0  0
   82.8431  -90.1313   -9.5998 H   0  0  0  0  0  0
   80.3736  -90.6017   -9.5181 H   0  0  0  0  0  0
   80.5724  -91.7559  -10.8800 H   0  0  0  0  0  0
  1  2  1  0  0  0
  1  6  2  0  0  0
  2  3  2  0  0  0
  2 49  1  0  0  0
  3  4  1  0  0  0
  4  5  2  0  0  0
  4 10  1  0  0  0
  5  6  1  0  0  0
  5  8  1  0  0  0
  6  7  1  0  0  0
  7 50  1  0  0  0
  7 51  1  0  0  0
  8  9  2  0  0  0
  9 10  1  0  0  0
  9 52  1  0  0  0
 10 11  1  0  0  0
 11 12  1  0  0  0
 11 21  1  0  0  0
 11 53  1  0  0  0
 12 13  1  0  0  0
 12 14  1  0  0  0
 12 54  1  0  0  0
 13 55  1  0  0  0
 14 15  1  0  0  0
 14 20  1  0  0  0
 14 56  1  0  0  0
 15 16  1  0  0  0
 16 17  2  0  0  0
 16 18  1  0  0  0
 16 19  1  0  0  0
 20 21  1  0  0  0
 20 22  1  0  0  0
 20 57  1  0  0  0
 22 23  1  0  0  0
 22 58  1  0  0  0
 22 59  1  0  0  0
 23 24  1  0  0  0
 24 25  2  0  0  0
 24 26  1  0  0  0
 24 27  1  0  0  0
 27 28  1  0  0  0
 28 29  2  0  0  0
 28 30  1  0  0  0
 28 31  1  0  0  0
 31 33  1  0  0  0
 32 33  1  0  0  0
 32 34  1  0  0  0
 32 35  1  0  0  0
 32 36  1  0  0  0
 33 60  1  0  0  0
 33 61  1  0  0  0
 34 62  1  0  0  0
 34 63  1  0  0  0
 34 64  1  0  0  0
 35 65  1  0  0  0
 35 66  1  0  0  0
 35 67  1  0  0  0
 36 37  1  0  0  0
 36 38  1  0  0  0
 36 68  1  0  0  0
 38 39  2  0  0  0
 38 40  1  0  0  0
 40 41  1  0  0  0
 40 69  1  0  0  0
 41 42  1  0  0  0
 41 70  1  0  0  0
 41 71  1  0  0  0
 42 43  1  0  0  0
 42 72  1  0  0  0
 42 73  1  0  0  0
 43 44  2  0  0  0
 43 45  1  0  0  0
 45 46  1  0  0  0
 45 74  1  0  0  0
 46 47  1  0  0  0
 46 75  1  0  0  0
 46 76  1  0  0  0
 47 48  1  0  0  0
 47 77  1  0  0  0
 47 78  1  0  0  0
M  CHG  6  18  -1  19  -1  26  -1  30  -1  37  -1  48  -1
M  END
> <s_m_source_file>
/cbio/jclab/home/rustenburg/PFK/Epik-Ligands/Results/InProgress/COENZYME A/pH_10.0/COENZYME A_pH_10.0-before_epik.mol2

> <i_m_source_file_index>
1

> <r_epik_Ionization_Penalty>
  4.0907

> <r_epik_Ionization_Penalty_Charging>
  4.0753

> <r_epik_Ionization_Penalty_Neutral>
  0.0154

> <r_epik_State_Penalty>
  4.3241

> <r_epik_Charging_Adjusted_Penalty>
8.39931656832822

> <i_epik_Tot_Q>
-6

> <i_epik_Tot_abs_Q>
6

> <s_epik_Chemistry_Notes>
This compound contains an acetal/aminal-like group ( X-CH(R)-Y where X, Y are N, S, or O) that may be acid/base labile, releasing an aldehyde.

$$$$
COA
                    3D
 Structure written by MMmdl.
 78 80  0  0  1  0            999 V2000
   88.6040  -84.6940  -15.4010 N   0  0  0  0  0  0
   88.5170  -85.3620  -16.6140 C   0  0  0  0  0  0
   88.4530  -84.8110  -17.8270 N   0  0  0  0  0  0
   88.4890  -83.4640  -17.7910 C   0  0  0  0  0  0
   88.5780  -82.6230  -16.6440 C   0  0  0  0  0  0
   88.6370  -83.3150  -15.3450 C   0  0  0  0  0  0
   88.7190  -82.6940  -14.2090 N   0  5  0  0  0  0
   88.5930  -81.3110  -16.9840 N   0  0  0  0  0  0
   88.5140  -81.2930  -18.3130 C   0  0  0  0  0  0
   88.4440  -82.5690  -18.8600 N   0  0  0  0  0  0
   88.2830  -82.8930  -20.3050 C   0  0  1  0  0  0
   89.1690  -84.0030  -20.8100 C   0  0  2  0  0  0
   90.4930  -83.5370  -21.0680 O   0  0  0  0  0  0
   88.4470  -84.3520  -22.1030 C   0  0  2  0  0  0
   88.5340  -83.3380  -23.0200 O   0  0  0  0  0  0
   88.5670  -83.7630  -24.6320 P   0  0  0  0  0  0
   89.7760  -84.7730  -24.8120 O   0  0  0  0  0  0
   88.8680  -82.4540  -25.4620 O   0  5  0  0  0  0
   87.1870  -84.4450  -25.0050 O   0  5  0  0  0  0
   86.9970  -84.4910  -21.5560 C   0  0  2  0  0  0
   86.9570  -83.4610  -20.4760 O   0  0  0  0  0  0
   86.5780  -85.7930  -20.9340 C   0  0  0  0  0  0
   86.6630  -86.7650  -22.0150 O   0  0  0  0  0  0
   85.5120  -87.8990  -22.1320 P   0  0  0  0  0  0
   85.9730  -88.8420  -23.2310 O   0  0  0  0  0  0
   84.1350  -87.3250  -22.2760 O   0  5  0  0  0  0
   85.5440  -88.6720  -20.8060 O   0  0  0  0  0  0
   86.5260  -89.8380  -20.2320 P   0  0  0  0  0  0
   85.9410  -91.2220  -20.3870 O   0  0  0  0  0  0
   87.9130  -89.7660  -20.8150 O   0  5  0  0  0  0
   86.6310  -89.4110  -18.6740 O   0  0  0  0  0  0
   85.9600  -88.6360  -16.5360 C   0  0  0  0  0  0
   85.5210  -89.4080  -17.8120 C   0  0  0  0  0  0
   87.4920  -88.7900  -16.2100 C   0  0  0  0  0  0
   85.6020  -87.2100  -16.9500 C   0  0  0  0  0  0
   85.1850  -89.1370  -15.2540 C   0  0  1  0  0  0
   85.5020  -88.2660  -14.1280 O   0  0  0  0  0  0
   83.6680  -89.1660  -15.4160 C   0  0  0  0  0  0
   83.0890  -90.0690  -16.2240 O   0  0  0  0  0  0
   82.9960  -88.2770  -14.7190 N   0  0  0  0  0  0
   81.5360  -88.1930  -14.7460 C   0  0  0  0  0  0
   81.0500  -88.2840  -13.2980 C   0  0  0  0  0  0
   81.4830  -89.5720  -12.6330 C   0  0  0  0  0  0
   81.5080  -90.7220  -13.2480 O   0  0  0  0  0  0
   81.8280  -89.4210  -11.3700 N   0  0  0  0  0  0
   82.3050  -90.5540  -10.4610 C   0  0  0  0  0  0
   81.0660  -91.3020  -10.0080 C   0  0  0  0  0  0
   81.4370  -92.6410   -8.8190 S   0  5  0  0  0  0
   88.4990  -86.4230  -16.5720 H   0  0  0  0  0  0
   88.7598  -83.2668  -13.2708 H   0  0  0  0  0  0
   88.5050  -80.4030  -18.8910 H   0  0  0  0  0  0
   88.4770  -81.9515  -20.8397 H   0  0  0  0  0  0
   89.3598  -84.8274  -20.1072 H   0  0  0  0  0  0
   91.1454  -83.2437  -20.2324 H   0  0  0  0  0  0
   88.8713  -85.1623  -22.7140 H   0  0  0  0  0  0
   86.2834  -84.3952  -22.3877 H   0  0  0  0  0  0
   87.2605  -86.0410  -20.1077 H   0  0  0  0  0  0
   85.5523  -85.7014  -20.5474 H   0  0  0  0  0  0
   84.6753  -88.9064  -18.3050 H   0  0  0  0  0  0
   85.2421  -90.4441  -17.5697 H   0  0  0  0  0  0
   88.0860  -88.4540  -17.0727 H   0  0  0  0  0  0
   87.7175  -89.8456  -15.9983 H   0  0  0  0  0  0
   87.7432  -88.1780  -15.3311 H   0  0  0  0  0  0
   86.1780  -86.9326  -17.8451 H   0  0  0  0  0  0
   85.8437  -86.5184  -16.1295 H   0  0  0  0  0  0
   84.5265  -87.1522  -17.1735 H   0  0  0  0  0  0
   85.5087  -90.1600  -15.0118 H   0  0  0  0  0  0
   86.5501  -88.1036  -13.8363 H   0  0  0  0  0  0
   83.5757  -87.5785  -14.0977 H   0  0  0  0  0  0
   81.2320  -87.2366  -15.1965 H   0  0  0  0  0  0
   81.1319  -89.0242  -15.3425 H   0  0  0  0  0  0
   81.4621  -87.4441  -12.7195 H   0  0  0  0  0  0
   79.9511  -88.2397  -13.2766 H   0  0  0  0  0  0
   81.7547  -88.3956  -10.9785 H   0  0  0  0  0  0
   82.9779  -91.2173  -11.0242 H   0  0  0  0  0  0
   82.8431  -90.1313   -9.5998 H   0  0  0  0  0  0
   80.3736  -90.6017   -9.5181 H   0  0  0  0  0  0
   80.5724  -91.7559  -10.8800 H   0  0  0  0  0  0
  1  2  1  0  0  0
  1  6  2  0  0  0
  2  3  2  0  0  0
  2 49  1  0  0  0
  3  4  1  0  0  0
  4  5  2  0  0  0
  4 10  1  0  0  0
  5  6  1  0  0  0
  5  8  1  0  0  0
  6  7  1  0  0  0
  7 50  1  0  0  0
  8  9  2  0  0  0
  9 10  1  0  0  0
  9 51  1  0  0  0
 10 11  1  0  0  0
 11 12  1  0  0  0
 11 21  1  0  0  0
 11 52  1  0  0  0
 12 13  1  0  0  0
 12 14  1  0  0  0
 12 53  1  0  0  0
 13 54  1  0  0  0
 14 15  1  0  0  0
 14 20  1  0  0  0
 14 55  1  0  0  0
 15 16  1  0  0  0
 16 17  2  0  0  0
 16 18  1  0  0  0
 16 19  1  0  0  0
 20 21  1  0  0  0
 20 22  1  0  0  0
 20 56  1  0  0  0
 22 23  1  0  0  0
 22 57  1  0  0  0
 22 58  1  0  0  0
 23 24  1  0  0  0
 24 25  2  0  0  0
 24 26  1  0  0  0
 24 27  1  0  0  0
 27 28  1  0  0  0
 28 29  2  0  0  0
 28 30  1  0  0  0
 28 31  1  0  0  0
 31 33  1  0  0  0
 32 33  1  0  0  0
 32 34  1  0  0  0
 32 35  1  0  0  0
 32 36  1  0  0  0
 33 59  1  0  0  0
 33 60  1  0  0  0
 34 61  1  0  0  0
 34 62  1  0  0  0
 34 63  1  0  0  0
 35 64  1  0  0  0
 35 65  1  0  0  0
 35 66  1  0  0  0
 36 37  1  0  0  0
 36 38  1  0  0  0
 36 67  1  0  0  0
 37 68  1  0  0  0
 38 39  2  0  0  0
 38 40  1  0  0  0
 40 41  1  0  0  0
 40 69  1  0  0  0
 41 42  1  0  0  0
 41 70  1  0  0  0
 41 71  1  0  0  0
 42 43  1  0  0  0
 42 72  1  0  0  0
 42 73  1  0  0  0
 43 44  2  0  0  0
 43 45  1  0  0  0
 45 46  1  0  0  0
 45 74  1  0  0  0
 46 47  1  0  0  0
 46 75  1  0  0  0
 46 76  1  0  0  0
 47 48  1  0  0  0
 47 77  1  0  0  0
 47 78  1  0  0  0
M  CHG  6   7  -1  18  -1  19  -1  26  -1  30  -1  48  -1
M  END
> <s_m_source_file>
/cbio/jclab/home/rustenburg/PFK/Epik-Ligands/Results/InProgress/COENZYME A/pH_10.0/COENZYME A_pH_10.0-before_epik.mol2

> <i_m_source_file_index>
1

> <r_epik_Ionization_Penalty>
  4.2648

> <r_epik_Ionization_Penalty_Charging>
  4.2491

> <r_epik_Ionization_Penalty_Neutral>
  0.0157

> <r_epik_State_Penalty>
  4.5182

> <r_epik_Charging_Adjusted_Penalty>
8.76730734510904

> <i_epik_Tot_Q>
-6

> <i_epik_Tot_abs_Q>
6

> <s_epik_Chemistry_Notes>
This compound contains an acetal/aminal-like group ( X-CH(R)-Y where X, Y are N, S, or O) that may be acid/base labile, releasing an aldehyde.

$$$$
COA
                    3D
 Structure written by MMmdl.
 79 81  0  0  1  0            999 V2000
   88.6040  -84.6940  -15.4010 N   0  0  0  0  0  0
   88.5170  -85.3620  -16.6140 C   0  0  0  0  0  0
   88.4530  -84.8110  -17.8270 N   0  0  0  0  0  0
   88.4890  -83.4640  -17.7910 C   0  0  0  0  0  0
   88.5780  -82.6230  -16.6440 C   0  0  0  0  0  0
   88.6370  -83.3150  -15.3450 C   0  0  0  0  0  0
   88.7190  -82.6940  -14.2090 N   0  0  0  0  0  0
   88.5930  -81.3110  -16.9840 N   0  0  0  0  0  0
   88.5140  -81.2930  -18.3130 C   0  0  0  0  0  0
   88.4440  -82.5690  -18.8600 N   0  0  0  0  0  0
   88.2830  -82.8930  -20.3050 C   0  0  1  0  0  0
   89.1690  -84.0030  -20.8100 C   0  0  2  0  0  0
   90.4930  -83.5370  -21.0680 O   0  0  0  0  0  0
   88.4470  -84.3520  -22.1030 C   0  0  2  0  0  0
   88.5340  -83.3380  -23.0200 O   0  0  0  0  0  0
   88.5670  -83.7630  -24.6320 P   0  0  0  0  0  0
   89.7760  -84.7730  -24.8120 O   0  0  0  0  0  0
   88.8680  -82.4540  -25.4620 O   0  5  0  0  0  0
   87.1870  -84.4450  -25.0050 O   0  5  0  0  0  0
   86.9970  -84.4910  -21.5560 C   0  0  2  0  0  0
   86.9570  -83.4610  -20.4760 O   0  0  0  0  0  0
   86.5780  -85.7930  -20.9340 C   0  0  0  0  0  0
   86.6630  -86.7650  -22.0150 O   0  0  0  0  0  0
   85.5120  -87.8990  -22.1320 P   0  0  0  0  0  0
   85.9730  -88.8420  -23.2310 O   0  0  0  0  0  0
   84.1350  -87.3250  -22.2760 O   0  5  0  0  0  0
   85.5440  -88.6720  -20.8060 O   0  0  0  0  0  0
   86.5260  -89.8380  -20.2320 P   0  0  0  0  0  0
   85.9410  -91.2220  -20.3870 O   0  0  0  0  0  0
   87.9130  -89.7660  -20.8150 O   0  5  0  0  0  0
   86.6310  -89.4110  -18.6740 O   0  0  0  0  0  0
   85.9600  -88.6360  -16.5360 C   0  0  0  0  0  0
   85.5210  -89.4080  -17.8120 C   0  0  0  0  0  0
   87.4920  -88.7900  -16.2100 C   0  0  0  0  0  0
   85.6020  -87.2100  -16.9500 C   0  0  0  0  0  0
   85.1850  -89.1370  -15.2540 C   0  0  1  0  0  0
   85.5020  -88.2660  -14.1280 O   0  5  0  0  0  0
   83.6680  -89.1660  -15.4160 C   0  0  0  0  0  0
   83.0890  -90.0690  -16.2240 O   0  0  0  0  0  0
   82.9960  -88.2770  -14.7190 N   0  0  0  0  0  0
   81.5360  -88.1930  -14.7460 C   0  0  0  0  0  0
   81.0500  -88.2840  -13.2980 C   0  0  0  0  0  0
   81.4830  -89.5720  -12.6330 C   0  0  0  0  0  0
   81.5080  -90.7220  -13.2480 O   0  0  0  0  0  0
   81.8280  -89.4210  -11.3700 N   0  0  0  0  0  0
   82.3050  -90.5540  -10.4610 C   0  0  0  0  0  0
   81.0660  -91.3020  -10.0080 C   0  0  0  0  0  0
   81.4370  -92.6410   -8.8190 S   0  0  0  0  0  0
   88.4990  -86.4230  -16.5720 H   0  0  0  0  0  0
   88.7598  -83.2668  -13.2708 H   0  0  0  0  0  0
   88.7477  -81.5947  -14.1840 H   0  0  0  0  0  0
   88.5050  -80.4030  -18.8910 H   0  0  0  0  0  0
   88.4770  -81.9515  -20.8397 H   0  0  0  0  0  0
   89.3598  -84.8274  -20.1072 H   0  0  0  0  0  0
   91.1454  -83.2437  -20.2324 H   0  0  0  0  0  0
   88.8713  -85.1623  -22.7140 H   0  0  0  0  0  0
   86.2834  -84.3952  -22.3877 H   0  0  0  0  0  0
   87.2605  -86.0410  -20.1077 H   0  0  0  0  0  0
   85.5523  -85.7014  -20.5474 H   0  0  0  0  0  0
   84.6753  -88.9064  -18.3050 H   0  0  0  0  0  0
   85.2421  -90.4441  -17.5697 H   0  0  0  0  0  0
   88.0860  -88.4540  -17.0727 H   0  0  0  0  0  0
   87.7175  -89.8456  -15.9983 H   0  0  0  0  0  0
   87.7432  -88.1780  -15.3311 H   0  0  0  0  0  0
   86.1780  -86.9326  -17.8451 H   0  0  0  0  0  0
   85.8437  -86.5184  -16.1295 H   0  0  0  0  0  0
   84.5265  -87.1522  -17.1735 H   0  0  0  0  0  0
   85.5087  -90.1600  -15.0118 H   0  0  0  0  0  0
   83.5757  -87.5785  -14.0977 H   0  0  0  0  0  0
   81.2320  -87.2366  -15.1965 H   0  0  0  0  0  0
   81.1319  -89.0242  -15.3425 H   0  0  0  0  0  0
   81.4621  -87.4441  -12.7195 H   0  0  0  0  0  0
   79.9511  -88.2397  -13.2766 H   0  0  0  0  0  0
   81.7547  -88.3956  -10.9785 H   0  0  0  0  0  0
   82.9779  -91.2173  -11.0242 H   0  0  0  0  0  0
   82.8431  -90.1313   -9.5998 H   0  0  0  0  0  0
   80.3736  -90.6017   -9.5181 H   0  0  0  0  0  0
   80.5724  -91.7559  -10.8800 H   0  0  0  0  0  0
   80.6217  -93.2588   -8.4145 H   0  0  0  0  0  0
  1  2  1  0  0  0
  1  6  2  0  0  0
  2  3  2  0  0  0
  2 49  1  0  0  0
  3  4  1  0  0  0
  4  5  2  0  0  0
  4 10  1  0  0  0
  5  6  1  0  0  0
  5  8  1  0  0  0
  6  7  1  0  0  0
  7 50  1  0  0  0
  7 51  1  0  0  0
  8  9  2  0  0  0
  9 10  1  0  0  0
  9 52  1  0  0  0
 10 11  1  0  0  0
 11 12  1  0  0  0
 11 21  1  0  0  0
 11 53  1  0  0  0
 12 13  1  0  0  0
 12 14  1  0  0  0
 12 54  1  0  0  0
 13 55  1  0  0  0
 14 15  1  0  0  0
 14 20  1  0  0  0
 14 56  1  0  0  0
 15 16  1  0  0  0
 16 17  2  0  0  0
 16 18  1  0  0  0
 16 19  1  0  0  0
 20 21  1  0  0  0
 20 22  1  0  0  0
 20 57  1  0  0  0
 22 23  1  0  0  0
 22 58  1  0  0  0
 22 59  1  0  0  0
 23 24  1  0  0  0
 24 25  2  0  0  0
 24 26  1  0  0  0
 24 27  1  0  0  0
 27 28  1  0  0  0
 28 29  2  0  0  0
 28 30  1  0  0  0
 28 31  1  0  0  0
 31 33  1  0  0  0
 32 33  1  0  0  0
 32 34  1  0  0  0
 32 35  1  0  0  0
 32 36  1  0  0  0
 33 60  1  0  0  0
 33 61  1  0  0  0
 34 62  1  0  0  0
 34 63  1  0  0  0
 34 64  1  0  0  0
 35 65  1  0  0  0
 35 66  1  0  0  0
 35 67  1  0  0  0
 36 37  1  0  0  0
 36 38  1  0  0  0
 36 68  1  0  0  0
 38 39  2  0  0  0
 38 40  1  0  0  0
 40 41  1  0  0  0
 40 69  1  0  0  0
 41 42  1  0  0  0
 41 70  1  0  0  0
 41 71  1  0  0  0
 42 43  1  0  0  0
 42 72  1  0  0  0
 42 73  1  0  0  0
 43 44  2  0  0  0
 43 45  1  0  0  0
 45 46  1  0  0  0
 45 74  1  0  0  0
 46 47  1  0  0  0
 46 75  1  0  0  0
 46 76  1  0  0  0
 47 48  1  0  0  0
 47 77  1  0  0  0
 47 78  1  0  0  0
 48 79  1  0  0  0
M  CHG  5  18  -1  19  -1  26  -1  30  -1  37  -1
M  END
> <s_m_source_file>
/cbio/jclab/home/rustenburg/PFK/Epik-Ligands/Results/InProgress/COENZYME A/pH_10.0/COENZYME A_pH_10.0-before_epik.mol2

> <i_m_source_file_index>
1

> <r_epik_Ionization_Penalty>
  5.0021

> <r_epik_Ionization_Penalty_Charging>
  3.9600

> <r_epik_Ionization_Penalty_Neutral>
  1.0421

> <r_epik_State_Penalty>
  5.2722

> <r_epik_Charging_Adjusted_Penalty>
9.23217264439061

> <i_epik_Tot_Q>
-5

> <i_epik_Tot_abs_Q>
5

> <s_epik_Chemistry_Notes>
This compound contains an acetal/aminal-like group ( X-CH(R)-Y where X, Y are N, S, or O) that may be acid/base labile, releasing an aldehyde.

$$$$
COA
                    3D
 Structure written by MMmdl.
 79 81  0  0  1  0            999 V2000
   88.6040  -84.6940  -15.4010 N   0  0  0  0  0  0
   88.5170  -85.3620  -16.6140 C   0  0  0  0  0  0
   88.4530  -84.8110  -17.8270 N   0  0  0  0  0  0
   88.4890  -83.4640  -17.7910 C   0  0  0  0  0  0
   88.5780  -82.6230  -16.6440 C   0  0  0  0  0  0
   88.6370  -83.3150  -15.3450 C   0  0  0  0  0  0
   88.7190  -82.6940  -14.2090 N   0  5  0  0  0  0
   88.5930  -81.3110  -16.9840 N   0  0  0  0  0  0
   88.5140  -81.2930  -18.3130 C   0  0  0  0  0  0
   88.4440  -82.5690  -18.8600 N   0  0  0  0  0  0
   88.2830  -82.8930  -20.3050 C   0  0  1  0  0  0
   89.1690  -84.0030  -20.8100 C   0  0  2  0  0  0
   90.4930  -83.5370  -21.0680 O   0  0  0  0  0  0
   88.4470  -84.3520  -22.1030 C   0  0  2  0  0  0
   88.5340  -83.3380  -23.0200 O   0  0  0  0  0  0
   88.5670  -83.7630  -24.6320 P   0  0  0  0  0  0
   89.7760  -84.7730  -24.8120 O   0  0  0  0  0  0
   88.8680  -82.4540  -25.4620 O   0  5  0  0  0  0
   87.1870  -84.4450  -25.0050 O   0  5  0  0  0  0
   86.9970  -84.4910  -21.5560 C   0  0  2  0  0  0
   86.9570  -83.4610  -20.4760 O   0  0  0  0  0  0
   86.5780  -85.7930  -20.9340 C   0  0  0  0  0  0
   86.6630  -86.7650  -22.0150 O   0  0  0  0  0  0
   85.5120  -87.8990  -22.1320 P   0  0  0  0  0  0
   85.9730  -88.8420  -23.2310 O   0  0  0  0  0  0
   84.1350  -87.3250  -22.2760 O   0  5  0  0  0  0
   85.5440  -88.6720  -20.8060 O   0  0  0  0  0  0
   86.5260  -89.8380  -20.2320 P   0  0  0  0  0  0
   85.9410  -91.2220  -20.3870 O   0  0  0  0  0  0
   87.9130  -89.7660  -20.8150 O   0  5  0  0  0  0
   86.6310  -89.4110  -18.6740 O   0  0  0  0  0  0
   85.9600  -88.6360  -16.5360 C   0  0  0  0  0  0
   85.5210  -89.4080  -17.8120 C   0  0  0  0  0  0
   87.4920  -88.7900  -16.2100 C   0  0  0  0  0  0
   85.6020  -87.2100  -16.9500 C   0  0  0  0  0  0
   85.1850  -89.1370  -15.2540 C   0  0  1  0  0  0
   85.5020  -88.2660  -14.1280 O   0  0  0  0  0  0
   83.6680  -89.1660  -15.4160 C   0  0  0  0  0  0
   83.0890  -90.0690  -16.2240 O   0  0  0  0  0  0
   82.9960  -88.2770  -14.7190 N   0  0  0  0  0  0
   81.5360  -88.1930  -14.7460 C   0  0  0  0  0  0
   81.0500  -88.2840  -13.2980 C   0  0  0  0  0  0
   81.4830  -89.5720  -12.6330 C   0  0  0  0  0  0
   81.5080  -90.7220  -13.2480 O   0  0  0  0  0  0
   81.8280  -89.4210  -11.3700 N   0  0  0  0  0  0
   82.3050  -90.5540  -10.4610 C   0  0  0  0  0  0
   81.0660  -91.3020  -10.0080 C   0  0  0  0  0  0
   81.4370  -92.6410   -8.8190 S   0  0  0  0  0  0
   88.4990  -86.4230  -16.5720 H   0  0  0  0  0  0
   88.7598  -83.2668  -13.2708 H   0  0  0  0  0  0
   88.5050  -80.4030  -18.8910 H   0  0  0  0  0  0
   88.4770  -81.9515  -20.8397 H   0  0  0  0  0  0
   89.3598  -84.8274  -20.1072 H   0  0  0  0  0  0
   91.1454  -83.2437  -20.2324 H   0  0  0  0  0  0
   88.8713  -85.1623  -22.7140 H   0  0  0  0  0  0
   86.2834  -84.3952  -22.3877 H   0  0  0  0  0  0
   87.2605  -86.0410  -20.1077 H   0  0  0  0  0  0
   85.5523  -85.7014  -20.5474 H   0  0  0  0  0  0
   84.6753  -88.9064  -18.3050 H   0  0  0  0  0  0
   85.2421  -90.4441  -17.5697 H   0  0  0  0  0  0
   88.0860  -88.4540  -17.0727 H   0  0  0  0  0  0
   87.7175  -89.8456  -15.9983 H   0  0  0  0  0  0
   87.7432  -88.1780  -15.3311 H   0  0  0  0  0  0
   86.1780  -86.9326  -17.8451 H   0  0  0  0  0  0
   85.8437  -86.5184  -16.1295 H   0  0  0  0  0  0
   84.5265  -87.1522  -17.1735 H   0  0  0  0  0  0
   85.5087  -90.1600  -15.0118 H   0  0  0  0  0  0
   86.5501  -88.1036  -13.8363 H   0  0  0  0  0  0
   83.5757  -87.5785  -14.0977 H   0  0  0  0  0  0
   81.2320  -87.2366  -15.1965 H   0  0  0  0  0  0
   81.1319  -89.0242  -15.3425 H   0  0  0  0  0  0
   81.4621  -87.4441  -12.7195 H   0  0  0  0  0  0
   79.9511  -88.2397  -13.2766 H   0  0  0  0  0  0
   81.7547  -88.3956  -10.9785 H   0  0  0  0  0  0
   82.9779  -91.2173  -11.0242 H   0  0  0  0  0  0
   82.8431  -90.1313   -9.5998 H   0  0  0  0  0  0
   80.3736  -90.6017   -9.5181 H   0  0  0  0  0  0
   80.5724  -91.7559  -10.8800 H   0  0  0  0  0  0
   80.6217  -93.2588   -8.4145 H   0  0  0  0  0  0
  1  2  1  0  0  0
  1  6  2  0  0  0
  2  3  2  0  0  0
  2 49  1  0  0  0
  3  4  1  0  0  0
  4  5  2  0  0  0
  4 10  1  0  0  0
  5  6  1  0  0  0
  5  8  1  0  0  0
  6  7  1  0  0  0
  7 50  1  0  0  0
  8  9  2  0  0  0
  9 10  1  0  0  0
  9 51  1  0  0  0
 10 11  1  0  0  0
 11 12  1  0  0  0
 11 21  1  0  0  0
 11 52  1  0  0  0
 12 13  1  0  0  0
 12 14  1  0  0  0
 12 53  1  0  0  0
 13 54  1  0  0  0
 14 15  1  0  0  0
 14 20  1  0  0  0
 14 55  1  0  0  0
 15 16  1  0  0  0
 16 17  2  0  0  0
 16 18  1  0  0  0
 16 19  1  0  0  0
 20 21  1  0  0  0
 20 22  1  0  0  0
 20 56  1  0  0  0
 22 23  1  0  0  0
 22 57  1  0  0  0
 22 58  1  0  0  0
 23 24  1  0  0  0
 24 25  2  0  0  0
 24 26  1  0  0  0
 24 27  1  0  0  0
 27 28  1  0  0  0
 28 29  2  0  0  0
 28 30  1  0  0  0
 28 31  1  0  0  0
 31 33  1  0  0  0
 32 33  1  0  0  0
 32 34  1  0  0  0
 32 35  1  0  0  0
 32 36  1  0  0  0
 33 59  1  0  0  0
 33 60  1  0  0  0
 34 61  1  0  0  0
 34 62  1  0  0  0
 34 63  1  0  0  0
 35 64  1  0  0  0
 35 65  1  0  0  0
 35 66  1  0  0  0
 36 37  1  0  0  0
 36 38  1  0  0  0
 36 67  1  0  0  0
 37 68  1  0  0  0
 38 39  2  0  0  0
 38 40  1  0  0  0
 40 41  1  0  0  0
 40 69  1  0  0  0
 41 42  1  0  0  0
 41 70  1  0  0  0
 41 71  1  0  0  0
 42 43  1  0  0  0
 42 72  1  0  0  0
 42 73  1  0  0  0
 43 44  2  0  0  0
 43 45  1  0  0  0
 45 46  1  0  0  0
 45 74  1  0  0  0
 46 47  1  0  0  0
 46 75  1  0  0  0
 46 76  1  0  0  0
 47 48  1  0  0  0
 47 77  1  0  0  0
 47 78  1  0  0  0
 48 79  1  0  0  0
M  CHG  5   7  -1  18  -1  19  -1  26  -1  30  -1
M  END
> <s_m_source_file>
/cbio/jclab/home/rustenburg/PFK/Epik-Ligands/Results/InProgress/COENZYME A/pH_10.0/COENZYME A_pH_10.0-before_epik.mol2

> <i_m_source_file_index>
1

> <r_epik_Ionization_Penalty>
  5.1841

> <r_epik_Ionization_Penalty_Charging>
  4.1352

> <r_epik_Ionization_Penalty_Neutral>
  1.0488

> <r_epik_State_Penalty>
  5.4816

> <r_epik_Charging_Adjusted_Penalty>
9.61686626249454

> <i_epik_Tot_Q>
-5

> <i_epik_Tot_abs_Q>
5

> <s_epik_Chemistry_Notes>
This compound contains an acetal/aminal-like group ( X-CH(R)-Y where X, Y are N, S, or O) that may be acid/base labile, releasing an aldehyde.

$$$$
