@<TRIPOS>MOLECULE
COA
79   81    1
SMALL
USER_CHARGES


@<TRIPOS>ATOM
      1 N1A        88.6040  -84.6940  -15.4010 N.ar      1 COA         0.0000 
      2 C2A        88.5170  -85.3620  -16.6140 C.ar      1 COA         0.0000 
      3 N3A        88.4530  -84.8110  -17.8270 N.ar      1 COA         0.0000 
      4 C4A        88.4890  -83.4640  -17.7910 C.ar      1 COA         0.0000 
      5 C5A        88.5780  -82.6230  -16.6440 C.ar      1 COA         0.0000 
      6 C6A        88.6370  -83.3150  -15.3450 C.ar      1 COA         0.0000 
      7 N6A        88.7190  -82.6940  -14.2090 N.pl3     1 COA         0.0000 
      8 N7A        88.5930  -81.3110  -16.9840 N.2       1 COA         0.0000 
      9 C8A        88.5140  -81.2930  -18.3130 C.ar      1 COA         0.0000 
     10 N9A        88.4440  -82.5690  -18.8600 N.pl3     1 COA         0.0000 
     11 C1B        88.2830  -82.8930  -20.3050 C.3       1 COA         0.0000 
     12 C2B        89.1690  -84.0030  -20.8100 C.3       1 COA         0.0000 
     13 O2B        90.4930  -83.5370  -21.0680 O.3       1 COA         0.0000 
     14 C3B        88.4470  -84.3520  -22.1030 C.3       1 COA         0.0000 
     15 O3B        88.5340  -83.3380  -23.0200 O.3       1 COA         0.0000 
     16 P3B        88.5670  -83.7630  -24.6320 P.3       1 COA         0.0000 
     17 O7A        89.7760  -84.7730  -24.8120 O.co2     1 COA         0.0000 
     18 O8A        88.8680  -82.4540  -25.4620 O.co2     1 COA         0.0000 
     19 O9A        87.1870  -84.4450  -25.0050 O.co2     1 COA         0.0000 
     20 C4B        86.9970  -84.4910  -21.5560 C.3       1 COA         0.0000 
     21 O4B        86.9570  -83.4610  -20.4760 O.3       1 COA         0.0000 
     22 C5B        86.5780  -85.7930  -20.9340 C.3       1 COA         0.0000 
     23 O5B        86.6630  -86.7650  -22.0150 O.3       1 COA         0.0000 
     24 P1A        85.5120  -87.8990  -22.1320 P.3       1 COA         0.0000 
     25 O1A        85.9730  -88.8420  -23.2310 O.co2     1 COA         0.0000 
     26 O2A        84.1350  -87.3250  -22.2760 O.co2     1 COA         0.0000 
     27 O3A        85.5440  -88.6720  -20.8060 O.3       1 COA         0.0000 
     28 P2A        86.5260  -89.8380  -20.2320 P.3       1 COA         0.0000 
     29 O4A        85.9410  -91.2220  -20.3870 O.co2     1 COA         0.0000 
     30 O5A        87.9130  -89.7660  -20.8150 O.co2     1 COA         0.0000 
     31 O6A        86.6310  -89.4110  -18.6740 O.3       1 COA         0.0000 
     32 CBP        85.9600  -88.6360  -16.5360 C.3       1 COA         0.0000 
     33 CCP        85.5210  -89.4080  -17.8120 C.3       1 COA         0.0000 
     34 CDP        87.4920  -88.7900  -16.2100 C.3       1 COA         0.0000 
     35 CEP        85.6020  -87.2100  -16.9500 C.3       1 COA         0.0000 
     36 CAP        85.1850  -89.1370  -15.2540 C.3       1 COA         0.0000 
     37 OAP        85.5020  -88.2660  -14.1280 O.3       1 COA         0.0000 
     38 C9P        83.6680  -89.1660  -15.4160 C.2       1 COA         0.0000 
     39 O9P        83.0890  -90.0690  -16.2240 O.2       1 COA         0.0000 
     40 N8P        82.9960  -88.2770  -14.7190 N.am      1 COA         0.0000 
     41 C7P        81.5360  -88.1930  -14.7460 C.3       1 COA         0.0000 
     42 C6P        81.0500  -88.2840  -13.2980 C.3       1 COA         0.0000 
     43 C5P        81.4830  -89.5720  -12.6330 C.2       1 COA         0.0000 
     44 O5P        81.5080  -90.7220  -13.2480 O.2       1 COA         0.0000 
     45 N4P        81.8280  -89.4210  -11.3700 N.am      1 COA         0.0000 
     46 C3P        82.3050  -90.5540  -10.4610 C.3       1 COA         0.0000 
     47 C2P        81.0660  -91.3020  -10.0080 C.3       1 COA         0.0000 
     48 S1P        81.4370  -92.6410   -8.8190 S.3       1 COA         0.0000 
     49 H2A        88.4990  -86.4230  -16.5720 H         1 COA         0.0000 
     50 H61A       88.7598  -83.2668  -13.2708 H         1 COA         0.0000 
     51 H62A       88.7477  -81.5947  -14.1840 H         1 COA         0.0000 
     52 H8A        88.5050  -80.4030  -18.8910 H         1 COA         0.0000 
     53 H1B        88.4770  -81.9515  -20.8397 H         1 COA         0.0000 
     54 H2B        89.3598  -84.8274  -20.1072 H         1 COA         0.0000 
     55 HO2A       91.1454  -83.2437  -20.2324 H         1 COA         0.0000 
     56 H3B        88.8713  -85.1623  -22.7140 H         1 COA         0.0000 
     57 H4B        86.2834  -84.3952  -22.3877 H         1 COA         0.0000 
     58 H51A       87.2605  -86.0410  -20.1077 H         1 COA         0.0000 
     59 H52A       85.5523  -85.7014  -20.5474 H         1 COA         0.0000 
     60 H121       84.6753  -88.9064  -18.3050 H         1 COA         0.0000 
     61 H122       85.2421  -90.4441  -17.5697 H         1 COA         0.0000 
     62 H131       88.0860  -88.4540  -17.0727 H         1 COA         0.0000 
     63 H132       87.7175  -89.8456  -15.9983 H         1 COA         0.0000 
     64 H133       87.7432  -88.1780  -15.3311 H         1 COA         0.0000 
     65 H141       86.1780  -86.9326  -17.8451 H         1 COA         0.0000 
     66 H142       85.8437  -86.5184  -16.1295 H         1 COA         0.0000 
     67 H143       84.5265  -87.1522  -17.1735 H         1 COA         0.0000 
     68 H10        85.5087  -90.1600  -15.0118 H         1 COA         0.0000 
     69 HO1        86.5501  -88.1036  -13.8363 H         1 COA         0.0000 
     70 HN8        83.5757  -87.5785  -14.0977 H         1 COA         0.0000 
     71 H71        81.2320  -87.2366  -15.1965 H         1 COA         0.0000 
     72 H72        81.1319  -89.0242  -15.3425 H         1 COA         0.0000 
     73 H61        81.4621  -87.4441  -12.7195 H         1 COA         0.0000 
     74 H62        79.9511  -88.2397  -13.2766 H         1 COA         0.0000 
     75 HN4        81.7547  -88.3956  -10.9785 H         1 COA         0.0000 
     76 H31        82.9779  -91.2173  -11.0242 H         1 COA         0.0000 
     77 H32        82.8431  -90.1313   -9.5998 H         1 COA         0.0000 
     78 H21        80.3736  -90.6017   -9.5181 H         1 COA         0.0000 
     79 H22        80.5724  -91.7559  -10.8800 H         1 COA         0.0000 
@<TRIPOS>BOND
     1    1    2 ar   
     2    1    6 ar   
     3    2    3 ar   
     4    2   49 1    
     5    3    4 ar   
     6    4    5 ar   
     7    4   10 ar   
     8    5    6 ar   
     9    5    8 ar   
    10    6    7 1    
    11    7   50 1    
    12    7   51 1    
    13    8    9 ar   
    14    9   10 ar   
    15    9   52 1    
    16   10   11 1    
    17   11   12 1    
    18   11   21 1    
    19   11   53 1    
    20   12   13 1    
    21   12   14 1    
    22   12   54 1    
    23   13   55 1    
    24   14   15 1    
    25   14   20 1    
    26   14   56 1    
    27   15   16 1    
    28   16   17 2    
    29   16   18 1    
    30   16   19 1    
    31   20   21 1    
    32   20   22 1    
    33   20   57 1    
    34   22   23 1    
    35   22   58 1    
    36   22   59 1    
    37   23   24 1    
    38   24   25 2    
    39   24   26 1    
    40   24   27 1    
    41   27   28 1    
    42   28   29 2    
    43   28   30 1    
    44   28   31 1    
    45   31   33 1    
    46   32   33 1    
    47   32   34 1    
    48   32   35 1    
    49   32   36 1    
    50   33   60 1    
    51   33   61 1    
    52   34   62 1    
    53   34   63 1    
    54   34   64 1    
    55   35   65 1    
    56   35   66 1    
    57   35   67 1    
    58   36   37 1    
    59   36   38 1    
    60   36   68 1    
    61   37   69 1    
    62   38   39 2    
    63   38   40 am   BACKBONE|DICT|INTERRES
    64   40   41 1    
    65   40   70 1    
    66   41   42 1    
    67   41   71 1    
    68   41   72 1    
    69   42   43 1    
    70   42   73 1    
    71   42   74 1    
    72   43   44 2    
    73   43   45 am   BACKBONE|DICT|INTERRES
    74   45   46 1    
    75   45   75 1    
    76   46   47 1    
    77   46   76 1    
    78   46   77 1    
    79   47   48 1    
    80   47   78 1    
    81   47   79 1    
@<TRIPOS>SUBSTRUCTURE
     1 COA         1 GROUP             0       ****    0 ROOT    
@<TRIPOS>MOLECULE
COA
80   82    1
SMALL
USER_CHARGES


@<TRIPOS>ATOM
      1 N1A        88.6040  -84.6940  -15.4010 N.ar      1 COA         0.0000 
      2 C2A        88.5170  -85.3620  -16.6140 C.ar      1 COA         0.0000 
      3 N3A        88.4530  -84.8110  -17.8270 N.ar      1 COA         0.0000 
      4 C4A        88.4890  -83.4640  -17.7910 C.ar      1 COA         0.0000 
      5 C5A        88.5780  -82.6230  -16.6440 C.ar      1 COA         0.0000 
      6 C6A        88.6370  -83.3150  -15.3450 C.ar      1 COA         0.0000 
      7 N6A        88.7190  -82.6940  -14.2090 N.pl3     1 COA         0.0000 
      8 N7A        88.5930  -81.3110  -16.9840 N.2       1 COA         0.0000 
      9 C8A        88.5140  -81.2930  -18.3130 C.ar      1 COA         0.0000 
     10 N9A        88.4440  -82.5690  -18.8600 N.pl3     1 COA         0.0000 
     11 C1B        88.2830  -82.8930  -20.3050 C.3       1 COA         0.0000 
     12 C2B        89.1690  -84.0030  -20.8100 C.3       1 COA         0.0000 
     13 O2B        90.4930  -83.5370  -21.0680 O.3       1 COA         0.0000 
     14 C3B        88.4470  -84.3520  -22.1030 C.3       1 COA         0.0000 
     15 O3B        88.5340  -83.3380  -23.0200 O.3       1 COA         0.0000 
     16 P3B        88.5670  -83.7630  -24.6320 P.3       1 COA         0.0000 
     17 O7A        89.7760  -84.7730  -24.8120 O.co2     1 COA         0.0000 
     18 O8A        88.8680  -82.4540  -25.4620 O.co2     1 COA         0.0000 
     19 O9A        87.1870  -84.4450  -25.0050 O.co2     1 COA         0.0000 
     20 C4B        86.9970  -84.4910  -21.5560 C.3       1 COA         0.0000 
     21 O4B        86.9570  -83.4610  -20.4760 O.3       1 COA         0.0000 
     22 C5B        86.5780  -85.7930  -20.9340 C.3       1 COA         0.0000 
     23 O5B        86.6630  -86.7650  -22.0150 O.3       1 COA         0.0000 
     24 P1A        85.5120  -87.8990  -22.1320 P.3       1 COA         0.0000 
     25 O1A        85.9730  -88.8420  -23.2310 O.co2     1 COA         0.0000 
     26 O2A        84.1350  -87.3250  -22.2760 O.co2     1 COA         0.0000 
     27 O3A        85.5440  -88.6720  -20.8060 O.3       1 COA         0.0000 
     28 P2A        86.5260  -89.8380  -20.2320 P.3       1 COA         0.0000 
     29 O4A        85.9410  -91.2220  -20.3870 O.co2     1 COA         0.0000 
     30 O5A        87.9130  -89.7660  -20.8150 O.co2     1 COA         0.0000 
     31 O6A        86.6310  -89.4110  -18.6740 O.3       1 COA         0.0000 
     32 CBP        85.9600  -88.6360  -16.5360 C.3       1 COA         0.0000 
     33 CCP        85.5210  -89.4080  -17.8120 C.3       1 COA         0.0000 
     34 CDP        87.4920  -88.7900  -16.2100 C.3       1 COA         0.0000 
     35 CEP        85.6020  -87.2100  -16.9500 C.3       1 COA         0.0000 
     36 CAP        85.1850  -89.1370  -15.2540 C.3       1 COA         0.0000 
     37 OAP        85.5020  -88.2660  -14.1280 O.3       1 COA         0.0000 
     38 C9P        83.6680  -89.1660  -15.4160 C.2       1 COA         0.0000 
     39 O9P        83.0890  -90.0690  -16.2240 O.2       1 COA         0.0000 
     40 N8P        82.9960  -88.2770  -14.7190 N.am      1 COA         0.0000 
     41 C7P        81.5360  -88.1930  -14.7460 C.3       1 COA         0.0000 
     42 C6P        81.0500  -88.2840  -13.2980 C.3       1 COA         0.0000 
     43 C5P        81.4830  -89.5720  -12.6330 C.2       1 COA         0.0000 
     44 O5P        81.5080  -90.7220  -13.2480 O.2       1 COA         0.0000 
     45 N4P        81.8280  -89.4210  -11.3700 N.am      1 COA         0.0000 
     46 C3P        82.3050  -90.5540  -10.4610 C.3       1 COA         0.0000 
     47 C2P        81.0660  -91.3020  -10.0080 C.3       1 COA         0.0000 
     48 S1P        81.4370  -92.6410   -8.8190 S.3       1 COA         0.0000 
     49 H2A        88.4990  -86.4230  -16.5720 H         1 COA         0.0000 
     50 H61A       88.7598  -83.2668  -13.2708 H         1 COA         0.0000 
     51 H62A       88.7477  -81.5947  -14.1840 H         1 COA         0.0000 
     52 H8A        88.5050  -80.4030  -18.8910 H         1 COA         0.0000 
     53 H1B        88.4770  -81.9515  -20.8397 H         1 COA         0.0000 
     54 H2B        89.3598  -84.8274  -20.1072 H         1 COA         0.0000 
     55 HO2A       91.1454  -83.2437  -20.2324 H         1 COA         0.0000 
     56 H3B        88.8713  -85.1623  -22.7140 H         1 COA         0.0000 
     57 H4B        86.2834  -84.3952  -22.3877 H         1 COA         0.0000 
     58 H51A       87.2605  -86.0410  -20.1077 H         1 COA         0.0000 
     59 H52A       85.5523  -85.7014  -20.5474 H         1 COA         0.0000 
     60 H121       84.6753  -88.9064  -18.3050 H         1 COA         0.0000 
     61 H122       85.2421  -90.4441  -17.5697 H         1 COA         0.0000 
     62 H131       88.0860  -88.4540  -17.0727 H         1 COA         0.0000 
     63 H132       87.7175  -89.8456  -15.9983 H         1 COA         0.0000 
     64 H133       87.7432  -88.1780  -15.3311 H         1 COA         0.0000 
     65 H141       86.1780  -86.9326  -17.8451 H         1 COA         0.0000 
     66 H142       85.8437  -86.5184  -16.1295 H         1 COA         0.0000 
     67 H143       84.5265  -87.1522  -17.1735 H         1 COA         0.0000 
     68 H10        85.5087  -90.1600  -15.0118 H         1 COA         0.0000 
     69 HO1        86.5501  -88.1036  -13.8363 H         1 COA         0.0000 
     70 HN8        83.5757  -87.5785  -14.0977 H         1 COA         0.0000 
     71 H71        81.2320  -87.2366  -15.1965 H         1 COA         0.0000 
     72 H72        81.1319  -89.0242  -15.3425 H         1 COA         0.0000 
     73 H61        81.4621  -87.4441  -12.7195 H         1 COA         0.0000 
     74 H62        79.9511  -88.2397  -13.2766 H         1 COA         0.0000 
     75 HN4        81.7547  -88.3956  -10.9785 H         1 COA         0.0000 
     76 H31        82.9779  -91.2173  -11.0242 H         1 COA         0.0000 
     77 H32        82.8431  -90.1313   -9.5998 H         1 COA         0.0000 
     78 H21        80.3736  -90.6017   -9.5181 H         1 COA         0.0000 
     79 H22        80.5724  -91.7559  -10.8800 H         1 COA         0.0000 
     80 HS1        80.6217  -93.2588   -8.4145 H         1 COA         0.0000 
@<TRIPOS>BOND
     1    1    2 ar   
     2    1    6 ar   
     3    2    3 ar   
     4    2   49 1    
     5    3    4 ar   
     6    4    5 ar   
     7    4   10 ar   
     8    5    6 ar   
     9    5    8 ar   
    10    6    7 1    
    11    7   50 1    
    12    7   51 1    
    13    8    9 ar   
    14    9   10 ar   
    15    9   52 1    
    16   10   11 1    
    17   11   12 1    
    18   11   21 1    
    19   11   53 1    
    20   12   13 1    
    21   12   14 1    
    22   12   54 1    
    23   13   55 1    
    24   14   15 1    
    25   14   20 1    
    26   14   56 1    
    27   15   16 1    
    28   16   17 2    
    29   16   18 1    
    30   16   19 1    
    31   20   21 1    
    32   20   22 1    
    33   20   57 1    
    34   22   23 1    
    35   22   58 1    
    36   22   59 1    
    37   23   24 1    
    38   24   25 2    
    39   24   26 1    
    40   24   27 1    
    41   27   28 1    
    42   28   29 2    
    43   28   30 1    
    44   28   31 1    
    45   31   33 1    
    46   32   33 1    
    47   32   34 1    
    48   32   35 1    
    49   32   36 1    
    50   33   60 1    
    51   33   61 1    
    52   34   62 1    
    53   34   63 1    
    54   34   64 1    
    55   35   65 1    
    56   35   66 1    
    57   35   67 1    
    58   36   37 1    
    59   36   38 1    
    60   36   68 1    
    61   37   69 1    
    62   38   39 2    
    63   38   40 am   BACKBONE|DICT|INTERRES
    64   40   41 1    
    65   40   70 1    
    66   41   42 1    
    67   41   71 1    
    68   41   72 1    
    69   42   43 1    
    70   42   73 1    
    71   42   74 1    
    72   43   44 2    
    73   43   45 am   BACKBONE|DICT|INTERRES
    74   45   46 1    
    75   45   75 1    
    76   46   47 1    
    77   46   76 1    
    78   46   77 1    
    79   47   48 1    
    80   47   78 1    
    81   47   79 1    
    82   48   80 1    
@<TRIPOS>SUBSTRUCTURE
     1 COA         1 GROUP             0       ****    0 ROOT    
@<TRIPOS>MOLECULE
COA
78   80    1
SMALL
USER_CHARGES


@<TRIPOS>ATOM
      1 N1A        88.6040  -84.6940  -15.4010 N.ar      1 COA         0.0000 
      2 C2A        88.5170  -85.3620  -16.6140 C.ar      1 COA         0.0000 
      3 N3A        88.4530  -84.8110  -17.8270 N.ar      1 COA         0.0000 
      4 C4A        88.4890  -83.4640  -17.7910 C.ar      1 COA         0.0000 
      5 C5A        88.5780  -82.6230  -16.6440 C.ar      1 COA         0.0000 
      6 C6A        88.6370  -83.3150  -15.3450 C.ar      1 COA         0.0000 
      7 N6A        88.7190  -82.6940  -14.2090 N.pl3     1 COA         0.0000 
      8 N7A        88.5930  -81.3110  -16.9840 N.2       1 COA         0.0000 
      9 C8A        88.5140  -81.2930  -18.3130 C.ar      1 COA         0.0000 
     10 N9A        88.4440  -82.5690  -18.8600 N.pl3     1 COA         0.0000 
     11 C1B        88.2830  -82.8930  -20.3050 C.3       1 COA         0.0000 
     12 C2B        89.1690  -84.0030  -20.8100 C.3       1 COA         0.0000 
     13 O2B        90.4930  -83.5370  -21.0680 O.co2     1 COA         0.0000 
     14 C3B        88.4470  -84.3520  -22.1030 C.3       1 COA         0.0000 
     15 O3B        88.5340  -83.3380  -23.0200 O.3       1 COA         0.0000 
     16 P3B        88.5670  -83.7630  -24.6320 P.3       1 COA         0.0000 
     17 O7A        89.7760  -84.7730  -24.8120 O.co2     1 COA         0.0000 
     18 O8A        88.8680  -82.4540  -25.4620 O.co2     1 COA         0.0000 
     19 O9A        87.1870  -84.4450  -25.0050 O.co2     1 COA         0.0000 
     20 C4B        86.9970  -84.4910  -21.5560 C.3       1 COA         0.0000 
     21 O4B        86.9570  -83.4610  -20.4760 O.3       1 COA         0.0000 
     22 C5B        86.5780  -85.7930  -20.9340 C.3       1 COA         0.0000 
     23 O5B        86.6630  -86.7650  -22.0150 O.3       1 COA         0.0000 
     24 P1A        85.5120  -87.8990  -22.1320 P.3       1 COA         0.0000 
     25 O1A        85.9730  -88.8420  -23.2310 O.co2     1 COA         0.0000 
     26 O2A        84.1350  -87.3250  -22.2760 O.co2     1 COA         0.0000 
     27 O3A        85.5440  -88.6720  -20.8060 O.3       1 COA         0.0000 
     28 P2A        86.5260  -89.8380  -20.2320 P.3       1 COA         0.0000 
     29 O4A        85.9410  -91.2220  -20.3870 O.co2     1 COA         0.0000 
     30 O5A        87.9130  -89.7660  -20.8150 O.co2     1 COA         0.0000 
     31 O6A        86.6310  -89.4110  -18.6740 O.3       1 COA         0.0000 
     32 CBP        85.9600  -88.6360  -16.5360 C.3       1 COA         0.0000 
     33 CCP        85.5210  -89.4080  -17.8120 C.3       1 COA         0.0000 
     34 CDP        87.4920  -88.7900  -16.2100 C.3       1 COA         0.0000 
     35 CEP        85.6020  -87.2100  -16.9500 C.3       1 COA         0.0000 
     36 CAP        85.1850  -89.1370  -15.2540 C.3       1 COA         0.0000 
     37 OAP        85.5020  -88.2660  -14.1280 O.3       1 COA         0.0000 
     38 C9P        83.6680  -89.1660  -15.4160 C.2       1 COA         0.0000 
     39 O9P        83.0890  -90.0690  -16.2240 O.2       1 COA         0.0000 
     40 N8P        82.9960  -88.2770  -14.7190 N.am      1 COA         0.0000 
     41 C7P        81.5360  -88.1930  -14.7460 C.3       1 COA         0.0000 
     42 C6P        81.0500  -88.2840  -13.2980 C.3       1 COA         0.0000 
     43 C5P        81.4830  -89.5720  -12.6330 C.2       1 COA         0.0000 
     44 O5P        81.5080  -90.7220  -13.2480 O.2       1 COA         0.0000 
     45 N4P        81.8280  -89.4210  -11.3700 N.am      1 COA         0.0000 
     46 C3P        82.3050  -90.5540  -10.4610 C.3       1 COA         0.0000 
     47 C2P        81.0660  -91.3020  -10.0080 C.3       1 COA         0.0000 
     48 S1P        81.4370  -92.6410   -8.8190 S.3       1 COA         0.0000 
     49 H2A        88.4990  -86.4230  -16.5720 H         1 COA         0.0000 
     50 H61A       88.7598  -83.2668  -13.2708 H         1 COA         0.0000 
     51 H62A       88.7477  -81.5947  -14.1840 H         1 COA         0.0000 
     52 H8A        88.5050  -80.4030  -18.8910 H         1 COA         0.0000 
     53 H1B        88.4770  -81.9515  -20.8397 H         1 COA         0.0000 
     54 H2B        89.3598  -84.8274  -20.1072 H         1 COA         0.0000 
     55 H3B        88.8713  -85.1623  -22.7140 H         1 COA         0.0000 
     56 H4B        86.2834  -84.3952  -22.3877 H         1 COA         0.0000 
     57 H51A       87.2605  -86.0410  -20.1077 H         1 COA         0.0000 
     58 H52A       85.5523  -85.7014  -20.5474 H         1 COA         0.0000 
     59 H121       84.6753  -88.9064  -18.3050 H         1 COA         0.0000 
     60 H122       85.2421  -90.4441  -17.5697 H         1 COA         0.0000 
     61 H131       88.0860  -88.4540  -17.0727 H         1 COA         0.0000 
     62 H132       87.7175  -89.8456  -15.9983 H         1 COA         0.0000 
     63 H133       87.7432  -88.1780  -15.3311 H         1 COA         0.0000 
     64 H141       86.1780  -86.9326  -17.8451 H         1 COA         0.0000 
     65 H142       85.8437  -86.5184  -16.1295 H         1 COA         0.0000 
     66 H143       84.5265  -87.1522  -17.1735 H         1 COA         0.0000 
     67 H10        85.5087  -90.1600  -15.0118 H         1 COA         0.0000 
     68 HO1        86.5501  -88.1036  -13.8363 H         1 COA         0.0000 
     69 HN8        83.5757  -87.5785  -14.0977 H         1 COA         0.0000 
     70 H71        81.2320  -87.2366  -15.1965 H         1 COA         0.0000 
     71 H72        81.1319  -89.0242  -15.3425 H         1 COA         0.0000 
     72 H61        81.4621  -87.4441  -12.7195 H         1 COA         0.0000 
     73 H62        79.9511  -88.2397  -13.2766 H         1 COA         0.0000 
     74 HN4        81.7547  -88.3956  -10.9785 H         1 COA         0.0000 
     75 H31        82.9779  -91.2173  -11.0242 H         1 COA         0.0000 
     76 H32        82.8431  -90.1313   -9.5998 H         1 COA         0.0000 
     77 H21        80.3736  -90.6017   -9.5181 H         1 COA         0.0000 
     78 H22        80.5724  -91.7559  -10.8800 H         1 COA         0.0000 
@<TRIPOS>BOND
     1    1    2 ar   
     2    1    6 ar   
     3    2    3 ar   
     4    2   49 1    
     5    3    4 ar   
     6    4    5 ar   
     7    4   10 ar   
     8    5    6 ar   
     9    5    8 ar   
    10    6    7 1    
    11    7   50 1    
    12    7   51 1    
    13    8    9 ar   
    14    9   10 ar   
    15    9   52 1    
    16   10   11 1    
    17   11   12 1    
    18   11   21 1    
    19   11   53 1    
    20   12   13 1    
    21   12   14 1    
    22   12   54 1    
    23   14   15 1    
    24   14   20 1    
    25   14   55 1    
    26   15   16 1    
    27   16   17 2    
    28   16   18 1    
    29   16   19 1    
    30   20   21 1    
    31   20   22 1    
    32   20   56 1    
    33   22   23 1    
    34   22   57 1    
    35   22   58 1    
    36   23   24 1    
    37   24   25 2    
    38   24   26 1    
    39   24   27 1    
    40   27   28 1    
    41   28   29 2    
    42   28   30 1    
    43   28   31 1    
    44   31   33 1    
    45   32   33 1    
    46   32   34 1    
    47   32   35 1    
    48   32   36 1    
    49   33   59 1    
    50   33   60 1    
    51   34   61 1    
    52   34   62 1    
    53   34   63 1    
    54   35   64 1    
    55   35   65 1    
    56   35   66 1    
    57   36   37 1    
    58   36   38 1    
    59   36   67 1    
    60   37   68 1    
    61   38   39 2    
    62   38   40 am   BACKBONE|DICT|INTERRES
    63   40   41 1    
    64   40   69 1    
    65   41   42 1    
    66   41   70 1    
    67   41   71 1    
    68   42   43 1    
    69   42   72 1    
    70   42   73 1    
    71   43   44 2    
    72   43   45 am   BACKBONE|DICT|INTERRES
    73   45   46 1    
    74   45   74 1    
    75   46   47 1    
    76   46   75 1    
    77   46   76 1    
    78   47   48 1    
    79   47   77 1    
    80   47   78 1    
@<TRIPOS>SUBSTRUCTURE
     1 COA         1 GROUP             0       ****    0 ROOT    
@<TRIPOS>MOLECULE
COA
79   81    1
SMALL
USER_CHARGES


@<TRIPOS>ATOM
      1 N1A        88.6040  -84.6940  -15.4010 N.ar      1 COA         0.0000 
      2 C2A        88.5170  -85.3620  -16.6140 C.ar      1 COA         0.0000 
      3 N3A        88.4530  -84.8110  -17.8270 N.ar      1 COA         0.0000 
      4 C4A        88.4890  -83.4640  -17.7910 C.ar      1 COA         0.0000 
      5 C5A        88.5780  -82.6230  -16.6440 C.ar      1 COA         0.0000 
      6 C6A        88.6370  -83.3150  -15.3450 C.ar      1 COA         0.0000 
      7 N6A        88.7190  -82.6940  -14.2090 N.pl3     1 COA         0.0000 
      8 N7A        88.5930  -81.3110  -16.9840 N.2       1 COA         0.0000 
      9 C8A        88.5140  -81.2930  -18.3130 C.ar      1 COA         0.0000 
     10 N9A        88.4440  -82.5690  -18.8600 N.pl3     1 COA         0.0000 
     11 C1B        88.2830  -82.8930  -20.3050 C.3       1 COA         0.0000 
     12 C2B        89.1690  -84.0030  -20.8100 C.3       1 COA         0.0000 
     13 O2B        90.4930  -83.5370  -21.0680 O.co2     1 COA         0.0000 
     14 C3B        88.4470  -84.3520  -22.1030 C.3       1 COA         0.0000 
     15 O3B        88.5340  -83.3380  -23.0200 O.3       1 COA         0.0000 
     16 P3B        88.5670  -83.7630  -24.6320 P.3       1 COA         0.0000 
     17 O7A        89.7760  -84.7730  -24.8120 O.co2     1 COA         0.0000 
     18 O8A        88.8680  -82.4540  -25.4620 O.co2     1 COA         0.0000 
     19 O9A        87.1870  -84.4450  -25.0050 O.co2     1 COA         0.0000 
     20 C4B        86.9970  -84.4910  -21.5560 C.3       1 COA         0.0000 
     21 O4B        86.9570  -83.4610  -20.4760 O.3       1 COA         0.0000 
     22 C5B        86.5780  -85.7930  -20.9340 C.3       1 COA         0.0000 
     23 O5B        86.6630  -86.7650  -22.0150 O.3       1 COA         0.0000 
     24 P1A        85.5120  -87.8990  -22.1320 P.3       1 COA         0.0000 
     25 O1A        85.9730  -88.8420  -23.2310 O.co2     1 COA         0.0000 
     26 O2A        84.1350  -87.3250  -22.2760 O.co2     1 COA         0.0000 
     27 O3A        85.5440  -88.6720  -20.8060 O.3       1 COA         0.0000 
     28 P2A        86.5260  -89.8380  -20.2320 P.3       1 COA         0.0000 
     29 O4A        85.9410  -91.2220  -20.3870 O.co2     1 COA         0.0000 
     30 O5A        87.9130  -89.7660  -20.8150 O.co2     1 COA         0.0000 
     31 O6A        86.6310  -89.4110  -18.6740 O.3       1 COA         0.0000 
     32 CBP        85.9600  -88.6360  -16.5360 C.3       1 COA         0.0000 
     33 CCP        85.5210  -89.4080  -17.8120 C.3       1 COA         0.0000 
     34 CDP        87.4920  -88.7900  -16.2100 C.3       1 COA         0.0000 
     35 CEP        85.6020  -87.2100  -16.9500 C.3       1 COA         0.0000 
     36 CAP        85.1850  -89.1370  -15.2540 C.3       1 COA         0.0000 
     37 OAP        85.5020  -88.2660  -14.1280 O.3       1 COA         0.0000 
     38 C9P        83.6680  -89.1660  -15.4160 C.2       1 COA         0.0000 
     39 O9P        83.0890  -90.0690  -16.2240 O.2       1 COA         0.0000 
     40 N8P        82.9960  -88.2770  -14.7190 N.am      1 COA         0.0000 
     41 C7P        81.5360  -88.1930  -14.7460 C.3       1 COA         0.0000 
     42 C6P        81.0500  -88.2840  -13.2980 C.3       1 COA         0.0000 
     43 C5P        81.4830  -89.5720  -12.6330 C.2       1 COA         0.0000 
     44 O5P        81.5080  -90.7220  -13.2480 O.2       1 COA         0.0000 
     45 N4P        81.8280  -89.4210  -11.3700 N.am      1 COA         0.0000 
     46 C3P        82.3050  -90.5540  -10.4610 C.3       1 COA         0.0000 
     47 C2P        81.0660  -91.3020  -10.0080 C.3       1 COA         0.0000 
     48 S1P        81.4370  -92.6410   -8.8190 S.3       1 COA         0.0000 
     49 H2A        88.4990  -86.4230  -16.5720 H         1 COA         0.0000 
     50 H61A       88.7598  -83.2668  -13.2708 H         1 COA         0.0000 
     51 H62A       88.7477  -81.5947  -14.1840 H         1 COA         0.0000 
     52 H8A        88.5050  -80.4030  -18.8910 H         1 COA         0.0000 
     53 H1B        88.4770  -81.9515  -20.8397 H         1 COA         0.0000 
     54 H2B        89.3598  -84.8274  -20.1072 H         1 COA         0.0000 
     55 H3B        88.8713  -85.1623  -22.7140 H         1 COA         0.0000 
     56 H4B        86.2834  -84.3952  -22.3877 H         1 COA         0.0000 
     57 H51A       87.2605  -86.0410  -20.1077 H         1 COA         0.0000 
     58 H52A       85.5523  -85.7014  -20.5474 H         1 COA         0.0000 
     59 H121       84.6753  -88.9064  -18.3050 H         1 COA         0.0000 
     60 H122       85.2421  -90.4441  -17.5697 H         1 COA         0.0000 
     61 H131       88.0860  -88.4540  -17.0727 H         1 COA         0.0000 
     62 H132       87.7175  -89.8456  -15.9983 H         1 COA         0.0000 
     63 H133       87.7432  -88.1780  -15.3311 H         1 COA         0.0000 
     64 H141       86.1780  -86.9326  -17.8451 H         1 COA         0.0000 
     65 H142       85.8437  -86.5184  -16.1295 H         1 COA         0.0000 
     66 H143       84.5265  -87.1522  -17.1735 H         1 COA         0.0000 
     67 H10        85.5087  -90.1600  -15.0118 H         1 COA         0.0000 
     68 HO1        86.5501  -88.1036  -13.8363 H         1 COA         0.0000 
     69 HN8        83.5757  -87.5785  -14.0977 H         1 COA         0.0000 
     70 H71        81.2320  -87.2366  -15.1965 H         1 COA         0.0000 
     71 H72        81.1319  -89.0242  -15.3425 H         1 COA         0.0000 
     72 H61        81.4621  -87.4441  -12.7195 H         1 COA         0.0000 
     73 H62        79.9511  -88.2397  -13.2766 H         1 COA         0.0000 
     74 HN4        81.7547  -88.3956  -10.9785 H         1 COA         0.0000 
     75 H31        82.9779  -91.2173  -11.0242 H         1 COA         0.0000 
     76 H32        82.8431  -90.1313   -9.5998 H         1 COA         0.0000 
     77 H21        80.3736  -90.6017   -9.5181 H         1 COA         0.0000 
     78 H22        80.5724  -91.7559  -10.8800 H         1 COA         0.0000 
     79 HS1        80.6217  -93.2588   -8.4145 H         1 COA         0.0000 
@<TRIPOS>BOND
     1    1    2 ar   
     2    1    6 ar   
     3    2    3 ar   
     4    2   49 1    
     5    3    4 ar   
     6    4    5 ar   
     7    4   10 ar   
     8    5    6 ar   
     9    5    8 ar   
    10    6    7 1    
    11    7   50 1    
    12    7   51 1    
    13    8    9 ar   
    14    9   10 ar   
    15    9   52 1    
    16   10   11 1    
    17   11   12 1    
    18   11   21 1    
    19   11   53 1    
    20   12   13 1    
    21   12   14 1    
    22   12   54 1    
    23   14   15 1    
    24   14   20 1    
    25   14   55 1    
    26   15   16 1    
    27   16   17 2    
    28   16   18 1    
    29   16   19 1    
    30   20   21 1    
    31   20   22 1    
    32   20   56 1    
    33   22   23 1    
    34   22   57 1    
    35   22   58 1    
    36   23   24 1    
    37   24   25 2    
    38   24   26 1    
    39   24   27 1    
    40   27   28 1    
    41   28   29 2    
    42   28   30 1    
    43   28   31 1    
    44   31   33 1    
    45   32   33 1    
    46   32   34 1    
    47   32   35 1    
    48   32   36 1    
    49   33   59 1    
    50   33   60 1    
    51   34   61 1    
    52   34   62 1    
    53   34   63 1    
    54   35   64 1    
    55   35   65 1    
    56   35   66 1    
    57   36   37 1    
    58   36   38 1    
    59   36   67 1    
    60   37   68 1    
    61   38   39 2    
    62   38   40 am   BACKBONE|DICT|INTERRES
    63   40   41 1    
    64   40   69 1    
    65   41   42 1    
    66   41   70 1    
    67   41   71 1    
    68   42   43 1    
    69   42   72 1    
    70   42   73 1    
    71   43   44 2    
    72   43   45 am   BACKBONE|DICT|INTERRES
    73   45   46 1    
    74   45   74 1    
    75   46   47 1    
    76   46   75 1    
    77   46   76 1    
    78   47   48 1    
    79   47   77 1    
    80   47   78 1    
    81   48   79 1    
@<TRIPOS>SUBSTRUCTURE
     1 COA         1 GROUP             0       ****    0 ROOT    
@<TRIPOS>MOLECULE
COA
78   80    1
SMALL
USER_CHARGES


@<TRIPOS>ATOM
      1 N1A        88.6040  -84.6940  -15.4010 N.ar      1 COA         0.0000 
      2 C2A        88.5170  -85.3620  -16.6140 C.ar      1 COA         0.0000 
      3 N3A        88.4530  -84.8110  -17.8270 N.ar      1 COA         0.0000 
      4 C4A        88.4890  -83.4640  -17.7910 C.ar      1 COA         0.0000 
      5 C5A        88.5780  -82.6230  -16.6440 C.ar      1 COA         0.0000 
      6 C6A        88.6370  -83.3150  -15.3450 C.ar      1 COA         0.0000 
      7 N6A        88.7190  -82.6940  -14.2090 N.pl3     1 COA         0.0000 
      8 N7A        88.5930  -81.3110  -16.9840 N.2       1 COA         0.0000 
      9 C8A        88.5140  -81.2930  -18.3130 C.ar      1 COA         0.0000 
     10 N9A        88.4440  -82.5690  -18.8600 N.pl3     1 COA         0.0000 
     11 C1B        88.2830  -82.8930  -20.3050 C.3       1 COA         0.0000 
     12 C2B        89.1690  -84.0030  -20.8100 C.3       1 COA         0.0000 
     13 O2B        90.4930  -83.5370  -21.0680 O.3       1 COA         0.0000 
     14 C3B        88.4470  -84.3520  -22.1030 C.3       1 COA         0.0000 
     15 O3B        88.5340  -83.3380  -23.0200 O.3       1 COA         0.0000 
     16 P3B        88.5670  -83.7630  -24.6320 P.3       1 COA         0.0000 
     17 O7A        89.7760  -84.7730  -24.8120 O.co2     1 COA         0.0000 
     18 O8A        88.8680  -82.4540  -25.4620 O.co2     1 COA         0.0000 
     19 O9A        87.1870  -84.4450  -25.0050 O.co2     1 COA         0.0000 
     20 C4B        86.9970  -84.4910  -21.5560 C.3       1 COA         0.0000 
     21 O4B        86.9570  -83.4610  -20.4760 O.3       1 COA         0.0000 
     22 C5B        86.5780  -85.7930  -20.9340 C.3       1 COA         0.0000 
     23 O5B        86.6630  -86.7650  -22.0150 O.3       1 COA         0.0000 
     24 P1A        85.5120  -87.8990  -22.1320 P.3       1 COA         0.0000 
     25 O1A        85.9730  -88.8420  -23.2310 O.co2     1 COA         0.0000 
     26 O2A        84.1350  -87.3250  -22.2760 O.co2     1 COA         0.0000 
     27 O3A        85.5440  -88.6720  -20.8060 O.3       1 COA         0.0000 
     28 P2A        86.5260  -89.8380  -20.2320 P.3       1 COA         0.0000 
     29 O4A        85.9410  -91.2220  -20.3870 O.co2     1 COA         0.0000 
     30 O5A        87.9130  -89.7660  -20.8150 O.co2     1 COA         0.0000 
     31 O6A        86.6310  -89.4110  -18.6740 O.3       1 COA         0.0000 
     32 CBP        85.9600  -88.6360  -16.5360 C.3       1 COA         0.0000 
     33 CCP        85.5210  -89.4080  -17.8120 C.3       1 COA         0.0000 
     34 CDP        87.4920  -88.7900  -16.2100 C.3       1 COA         0.0000 
     35 CEP        85.6020  -87.2100  -16.9500 C.3       1 COA         0.0000 
     36 CAP        85.1850  -89.1370  -15.2540 C.3       1 COA         0.0000 
     37 OAP        85.5020  -88.2660  -14.1280 O.co2     1 COA         0.0000 
     38 C9P        83.6680  -89.1660  -15.4160 C.2       1 COA         0.0000 
     39 O9P        83.0890  -90.0690  -16.2240 O.2       1 COA         0.0000 
     40 N8P        82.9960  -88.2770  -14.7190 N.am      1 COA         0.0000 
     41 C7P        81.5360  -88.1930  -14.7460 C.3       1 COA         0.0000 
     42 C6P        81.0500  -88.2840  -13.2980 C.3       1 COA         0.0000 
     43 C5P        81.4830  -89.5720  -12.6330 C.2       1 COA         0.0000 
     44 O5P        81.5080  -90.7220  -13.2480 O.2       1 COA         0.0000 
     45 N4P        81.8280  -89.4210  -11.3700 N.am      1 COA         0.0000 
     46 C3P        82.3050  -90.5540  -10.4610 C.3       1 COA         0.0000 
     47 C2P        81.0660  -91.3020  -10.0080 C.3       1 COA         0.0000 
     48 S1P        81.4370  -92.6410   -8.8190 S.3       1 COA         0.0000 
     49 H2A        88.4990  -86.4230  -16.5720 H         1 COA         0.0000 
     50 H61A       88.7598  -83.2668  -13.2708 H         1 COA         0.0000 
     51 H62A       88.7477  -81.5947  -14.1840 H         1 COA         0.0000 
     52 H8A        88.5050  -80.4030  -18.8910 H         1 COA         0.0000 
     53 H1B        88.4770  -81.9515  -20.8397 H         1 COA         0.0000 
     54 H2B        89.3598  -84.8274  -20.1072 H         1 COA         0.0000 
     55 HO2A       91.1454  -83.2437  -20.2324 H         1 COA         0.0000 
     56 H3B        88.8713  -85.1623  -22.7140 H         1 COA         0.0000 
     57 H4B        86.2834  -84.3952  -22.3877 H         1 COA         0.0000 
     58 H51A       87.2605  -86.0410  -20.1077 H         1 COA         0.0000 
     59 H52A       85.5523  -85.7014  -20.5474 H         1 COA         0.0000 
     60 H121       84.6753  -88.9064  -18.3050 H         1 COA         0.0000 
     61 H122       85.2421  -90.4441  -17.5697 H         1 COA         0.0000 
     62 H131       88.0860  -88.4540  -17.0727 H         1 COA         0.0000 
     63 H132       87.7175  -89.8456  -15.9983 H         1 COA         0.0000 
     64 H133       87.7432  -88.1780  -15.3311 H         1 COA         0.0000 
     65 H141       86.1780  -86.9326  -17.8451 H         1 COA         0.0000 
     66 H142       85.8437  -86.5184  -16.1295 H         1 COA         0.0000 
     67 H143       84.5265  -87.1522  -17.1735 H         1 COA         0.0000 
     68 H10        85.5087  -90.1600  -15.0118 H         1 COA         0.0000 
     69 HN8        83.5757  -87.5785  -14.0977 H         1 COA         0.0000 
     70 H71        81.2320  -87.2366  -15.1965 H         1 COA         0.0000 
     71 H72        81.1319  -89.0242  -15.3425 H         1 COA         0.0000 
     72 H61        81.4621  -87.4441  -12.7195 H         1 COA         0.0000 
     73 H62        79.9511  -88.2397  -13.2766 H         1 COA         0.0000 
     74 HN4        81.7547  -88.3956  -10.9785 H         1 COA         0.0000 
     75 H31        82.9779  -91.2173  -11.0242 H         1 COA         0.0000 
     76 H32        82.8431  -90.1313   -9.5998 H         1 COA         0.0000 
     77 H21        80.3736  -90.6017   -9.5181 H         1 COA         0.0000 
     78 H22        80.5724  -91.7559  -10.8800 H         1 COA         0.0000 
@<TRIPOS>BOND
     1    1    2 ar   
     2    1    6 ar   
     3    2    3 ar   
     4    2   49 1    
     5    3    4 ar   
     6    4    5 ar   
     7    4   10 ar   
     8    5    6 ar   
     9    5    8 ar   
    10    6    7 1    
    11    7   50 1    
    12    7   51 1    
    13    8    9 ar   
    14    9   10 ar   
    15    9   52 1    
    16   10   11 1    
    17   11   12 1    
    18   11   21 1    
    19   11   53 1    
    20   12   13 1    
    21   12   14 1    
    22   12   54 1    
    23   13   55 1    
    24   14   15 1    
    25   14   20 1    
    26   14   56 1    
    27   15   16 1    
    28   16   17 2    
    29   16   18 1    
    30   16   19 1    
    31   20   21 1    
    32   20   22 1    
    33   20   57 1    
    34   22   23 1    
    35   22   58 1    
    36   22   59 1    
    37   23   24 1    
    38   24   25 2    
    39   24   26 1    
    40   24   27 1    
    41   27   28 1    
    42   28   29 2    
    43   28   30 1    
    44   28   31 1    
    45   31   33 1    
    46   32   33 1    
    47   32   34 1    
    48   32   35 1    
    49   32   36 1    
    50   33   60 1    
    51   33   61 1    
    52   34   62 1    
    53   34   63 1    
    54   34   64 1    
    55   35   65 1    
    56   35   66 1    
    57   35   67 1    
    58   36   37 1    
    59   36   38 1    
    60   36   68 1    
    61   38   39 2    
    62   38   40 am   BACKBONE|DICT|INTERRES
    63   40   41 1    
    64   40   69 1    
    65   41   42 1    
    66   41   70 1    
    67   41   71 1    
    68   42   43 1    
    69   42   72 1    
    70   42   73 1    
    71   43   44 2    
    72   43   45 am   BACKBONE|DICT|INTERRES
    73   45   46 1    
    74   45   74 1    
    75   46   47 1    
    76   46   75 1    
    77   46   76 1    
    78   47   48 1    
    79   47   77 1    
    80   47   78 1    
@<TRIPOS>SUBSTRUCTURE
     1 COA         1 GROUP             0       ****    0 ROOT    
@<TRIPOS>MOLECULE
COA
78   80    1
SMALL
USER_CHARGES


@<TRIPOS>ATOM
      1 N1A        88.6040  -84.6940  -15.4010 N.ar      1 COA         0.0000 
      2 C2A        88.5170  -85.3620  -16.6140 C.ar      1 COA         0.0000 
      3 N3A        88.4530  -84.8110  -17.8270 N.ar      1 COA         0.0000 
      4 C4A        88.4890  -83.4640  -17.7910 C.ar      1 COA         0.0000 
      5 C5A        88.5780  -82.6230  -16.6440 C.ar      1 COA         0.0000 
      6 C6A        88.6370  -83.3150  -15.3450 C.ar      1 COA         0.0000 
      7 N6A        88.7190  -82.6940  -14.2090 N.2       1 COA         0.0000 
      8 N7A        88.5930  -81.3110  -16.9840 N.2       1 COA         0.0000 
      9 C8A        88.5140  -81.2930  -18.3130 C.ar      1 COA         0.0000 
     10 N9A        88.4440  -82.5690  -18.8600 N.pl3     1 COA         0.0000 
     11 C1B        88.2830  -82.8930  -20.3050 C.3       1 COA         0.0000 
     12 C2B        89.1690  -84.0030  -20.8100 C.3       1 COA         0.0000 
     13 O2B        90.4930  -83.5370  -21.0680 O.3       1 COA         0.0000 
     14 C3B        88.4470  -84.3520  -22.1030 C.3       1 COA         0.0000 
     15 O3B        88.5340  -83.3380  -23.0200 O.3       1 COA         0.0000 
     16 P3B        88.5670  -83.7630  -24.6320 P.3       1 COA         0.0000 
     17 O7A        89.7760  -84.7730  -24.8120 O.co2     1 COA         0.0000 
     18 O8A        88.8680  -82.4540  -25.4620 O.co2     1 COA         0.0000 
     19 O9A        87.1870  -84.4450  -25.0050 O.co2     1 COA         0.0000 
     20 C4B        86.9970  -84.4910  -21.5560 C.3       1 COA         0.0000 
     21 O4B        86.9570  -83.4610  -20.4760 O.3       1 COA         0.0000 
     22 C5B        86.5780  -85.7930  -20.9340 C.3       1 COA         0.0000 
     23 O5B        86.6630  -86.7650  -22.0150 O.3       1 COA         0.0000 
     24 P1A        85.5120  -87.8990  -22.1320 P.3       1 COA         0.0000 
     25 O1A        85.9730  -88.8420  -23.2310 O.co2     1 COA         0.0000 
     26 O2A        84.1350  -87.3250  -22.2760 O.co2     1 COA         0.0000 
     27 O3A        85.5440  -88.6720  -20.8060 O.3       1 COA         0.0000 
     28 P2A        86.5260  -89.8380  -20.2320 P.3       1 COA         0.0000 
     29 O4A        85.9410  -91.2220  -20.3870 O.co2     1 COA         0.0000 
     30 O5A        87.9130  -89.7660  -20.8150 O.co2     1 COA         0.0000 
     31 O6A        86.6310  -89.4110  -18.6740 O.3       1 COA         0.0000 
     32 CBP        85.9600  -88.6360  -16.5360 C.3       1 COA         0.0000 
     33 CCP        85.5210  -89.4080  -17.8120 C.3       1 COA         0.0000 
     34 CDP        87.4920  -88.7900  -16.2100 C.3       1 COA         0.0000 
     35 CEP        85.6020  -87.2100  -16.9500 C.3       1 COA         0.0000 
     36 CAP        85.1850  -89.1370  -15.2540 C.3       1 COA         0.0000 
     37 OAP        85.5020  -88.2660  -14.1280 O.3       1 COA         0.0000 
     38 C9P        83.6680  -89.1660  -15.4160 C.2       1 COA         0.0000 
     39 O9P        83.0890  -90.0690  -16.2240 O.2       1 COA         0.0000 
     40 N8P        82.9960  -88.2770  -14.7190 N.am      1 COA         0.0000 
     41 C7P        81.5360  -88.1930  -14.7460 C.3       1 COA         0.0000 
     42 C6P        81.0500  -88.2840  -13.2980 C.3       1 COA         0.0000 
     43 C5P        81.4830  -89.5720  -12.6330 C.2       1 COA         0.0000 
     44 O5P        81.5080  -90.7220  -13.2480 O.2       1 COA         0.0000 
     45 N4P        81.8280  -89.4210  -11.3700 N.am      1 COA         0.0000 
     46 C3P        82.3050  -90.5540  -10.4610 C.3       1 COA         0.0000 
     47 C2P        81.0660  -91.3020  -10.0080 C.3       1 COA         0.0000 
     48 S1P        81.4370  -92.6410   -8.8190 S.3       1 COA         0.0000 
     49 H2A        88.4990  -86.4230  -16.5720 H         1 COA         0.0000 
     50 H62A       88.7598  -83.2668  -13.2708 H         1 COA         0.0000 
     51 H8A        88.5050  -80.4030  -18.8910 H         1 COA         0.0000 
     52 H1B        88.4770  -81.9515  -20.8397 H         1 COA         0.0000 
     53 H2B        89.3598  -84.8274  -20.1072 H         1 COA         0.0000 
     54 HO2A       91.1454  -83.2437  -20.2324 H         1 COA         0.0000 
     55 H3B        88.8713  -85.1623  -22.7140 H         1 COA         0.0000 
     56 H4B        86.2834  -84.3952  -22.3877 H         1 COA         0.0000 
     57 H51A       87.2605  -86.0410  -20.1077 H         1 COA         0.0000 
     58 H52A       85.5523  -85.7014  -20.5474 H         1 COA         0.0000 
     59 H121       84.6753  -88.9064  -18.3050 H         1 COA         0.0000 
     60 H122       85.2421  -90.4441  -17.5697 H         1 COA         0.0000 
     61 H131       88.0860  -88.4540  -17.0727 H         1 COA         0.0000 
     62 H132       87.7175  -89.8456  -15.9983 H         1 COA         0.0000 
     63 H133       87.7432  -88.1780  -15.3311 H         1 COA         0.0000 
     64 H141       86.1780  -86.9326  -17.8451 H         1 COA         0.0000 
     65 H142       85.8437  -86.5184  -16.1295 H         1 COA         0.0000 
     66 H143       84.5265  -87.1522  -17.1735 H         1 COA         0.0000 
     67 H10        85.5087  -90.1600  -15.0118 H         1 COA         0.0000 
     68 HO1        86.5501  -88.1036  -13.8363 H         1 COA         0.0000 
     69 HN8        83.5757  -87.5785  -14.0977 H         1 COA         0.0000 
     70 H71        81.2320  -87.2366  -15.1965 H         1 COA         0.0000 
     71 H72        81.1319  -89.0242  -15.3425 H         1 COA         0.0000 
     72 H61        81.4621  -87.4441  -12.7195 H         1 COA         0.0000 
     73 H62        79.9511  -88.2397  -13.2766 H         1 COA         0.0000 
     74 HN4        81.7547  -88.3956  -10.9785 H         1 COA         0.0000 
     75 H31        82.9779  -91.2173  -11.0242 H         1 COA         0.0000 
     76 H32        82.8431  -90.1313   -9.5998 H         1 COA         0.0000 
     77 H21        80.3736  -90.6017   -9.5181 H         1 COA         0.0000 
     78 H22        80.5724  -91.7559  -10.8800 H         1 COA         0.0000 
@<TRIPOS>BOND
     1    1    2 ar   
     2    1    6 ar   
     3    2    3 ar   
     4    2   49 1    
     5    3    4 ar   
     6    4    5 ar   
     7    4   10 ar   
     8    5    6 ar   
     9    5    8 ar   
    10    6    7 1    
    11    7   50 1    
    12    8    9 ar   
    13    9   10 ar   
    14    9   51 1    
    15   10   11 1    
    16   11   12 1    
    17   11   21 1    
    18   11   52 1    
    19   12   13 1    
    20   12   14 1    
    21   12   53 1    
    22   13   54 1    
    23   14   15 1    
    24   14   20 1    
    25   14   55 1    
    26   15   16 1    
    27   16   17 2    
    28   16   18 1    
    29   16   19 1    
    30   20   21 1    
    31   20   22 1    
    32   20   56 1    
    33   22   23 1    
    34   22   57 1    
    35   22   58 1    
    36   23   24 1    
    37   24   25 2    
    38   24   26 1    
    39   24   27 1    
    40   27   28 1    
    41   28   29 2    
    42   28   30 1    
    43   28   31 1    
    44   31   33 1    
    45   32   33 1    
    46   32   34 1    
    47   32   35 1    
    48   32   36 1    
    49   33   59 1    
    50   33   60 1    
    51   34   61 1    
    52   34   62 1    
    53   34   63 1    
    54   35   64 1    
    55   35   65 1    
    56   35   66 1    
    57   36   37 1    
    58   36   38 1    
    59   36   67 1    
    60   37   68 1    
    61   38   39 2    
    62   38   40 am   BACKBONE|DICT|INTERRES
    63   40   41 1    
    64   40   69 1    
    65   41   42 1    
    66   41   70 1    
    67   41   71 1    
    68   42   43 1    
    69   42   72 1    
    70   42   73 1    
    71   43   44 2    
    72   43   45 am   BACKBONE|DICT|INTERRES
    73   45   46 1    
    74   45   74 1    
    75   46   47 1    
    76   46   75 1    
    77   46   76 1    
    78   47   48 1    
    79   47   77 1    
    80   47   78 1    
@<TRIPOS>SUBSTRUCTURE
     1 COA         1 GROUP             0       ****    0 ROOT    
@<TRIPOS>MOLECULE
COA
79   81    1
SMALL
USER_CHARGES


@<TRIPOS>ATOM
      1 N1A        88.6040  -84.6940  -15.4010 N.ar      1 COA         0.0000 
      2 C2A        88.5170  -85.3620  -16.6140 C.ar      1 COA         0.0000 
      3 N3A        88.4530  -84.8110  -17.8270 N.ar      1 COA         0.0000 
      4 C4A        88.4890  -83.4640  -17.7910 C.ar      1 COA         0.0000 
      5 C5A        88.5780  -82.6230  -16.6440 C.ar      1 COA         0.0000 
      6 C6A        88.6370  -83.3150  -15.3450 C.ar      1 COA         0.0000 
      7 N6A        88.7190  -82.6940  -14.2090 N.pl3     1 COA         0.0000 
      8 N7A        88.5930  -81.3110  -16.9840 N.2       1 COA         0.0000 
      9 C8A        88.5140  -81.2930  -18.3130 C.ar      1 COA         0.0000 
     10 N9A        88.4440  -82.5690  -18.8600 N.pl3     1 COA         0.0000 
     11 C1B        88.2830  -82.8930  -20.3050 C.3       1 COA         0.0000 
     12 C2B        89.1690  -84.0030  -20.8100 C.3       1 COA         0.0000 
     13 O2B        90.4930  -83.5370  -21.0680 O.3       1 COA         0.0000 
     14 C3B        88.4470  -84.3520  -22.1030 C.3       1 COA         0.0000 
     15 O3B        88.5340  -83.3380  -23.0200 O.3       1 COA         0.0000 
     16 P3B        88.5670  -83.7630  -24.6320 P.3       1 COA         0.0000 
     17 O7A        89.7760  -84.7730  -24.8120 O.co2     1 COA         0.0000 
     18 O8A        88.8680  -82.4540  -25.4620 O.co2     1 COA         0.0000 
     19 O9A        87.1870  -84.4450  -25.0050 O.co2     1 COA         0.0000 
     20 C4B        86.9970  -84.4910  -21.5560 C.3       1 COA         0.0000 
     21 O4B        86.9570  -83.4610  -20.4760 O.3       1 COA         0.0000 
     22 C5B        86.5780  -85.7930  -20.9340 C.3       1 COA         0.0000 
     23 O5B        86.6630  -86.7650  -22.0150 O.3       1 COA         0.0000 
     24 P1A        85.5120  -87.8990  -22.1320 P.3       1 COA         0.0000 
     25 O1A        85.9730  -88.8420  -23.2310 O.co2     1 COA         0.0000 
     26 O2A        84.1350  -87.3250  -22.2760 O.co2     1 COA         0.0000 
     27 O3A        85.5440  -88.6720  -20.8060 O.3       1 COA         0.0000 
     28 P2A        86.5260  -89.8380  -20.2320 P.3       1 COA         0.0000 
     29 O4A        85.9410  -91.2220  -20.3870 O.co2     1 COA         0.0000 
     30 O5A        87.9130  -89.7660  -20.8150 O.co2     1 COA         0.0000 
     31 O6A        86.6310  -89.4110  -18.6740 O.3       1 COA         0.0000 
     32 CBP        85.9600  -88.6360  -16.5360 C.3       1 COA         0.0000 
     33 CCP        85.5210  -89.4080  -17.8120 C.3       1 COA         0.0000 
     34 CDP        87.4920  -88.7900  -16.2100 C.3       1 COA         0.0000 
     35 CEP        85.6020  -87.2100  -16.9500 C.3       1 COA         0.0000 
     36 CAP        85.1850  -89.1370  -15.2540 C.3       1 COA         0.0000 
     37 OAP        85.5020  -88.2660  -14.1280 O.co2     1 COA         0.0000 
     38 C9P        83.6680  -89.1660  -15.4160 C.2       1 COA         0.0000 
     39 O9P        83.0890  -90.0690  -16.2240 O.2       1 COA         0.0000 
     40 N8P        82.9960  -88.2770  -14.7190 N.am      1 COA         0.0000 
     41 C7P        81.5360  -88.1930  -14.7460 C.3       1 COA         0.0000 
     42 C6P        81.0500  -88.2840  -13.2980 C.3       1 COA         0.0000 
     43 C5P        81.4830  -89.5720  -12.6330 C.2       1 COA         0.0000 
     44 O5P        81.5080  -90.7220  -13.2480 O.2       1 COA         0.0000 
     45 N4P        81.8280  -89.4210  -11.3700 N.am      1 COA         0.0000 
     46 C3P        82.3050  -90.5540  -10.4610 C.3       1 COA         0.0000 
     47 C2P        81.0660  -91.3020  -10.0080 C.3       1 COA         0.0000 
     48 S1P        81.4370  -92.6410   -8.8190 S.3       1 COA         0.0000 
     49 H2A        88.4990  -86.4230  -16.5720 H         1 COA         0.0000 
     50 H61A       88.7598  -83.2668  -13.2708 H         1 COA         0.0000 
     51 H62A       88.7477  -81.5947  -14.1840 H         1 COA         0.0000 
     52 H8A        88.5050  -80.4030  -18.8910 H         1 COA         0.0000 
     53 H1B        88.4770  -81.9515  -20.8397 H         1 COA         0.0000 
     54 H2B        89.3598  -84.8274  -20.1072 H         1 COA         0.0000 
     55 HO2A       91.1454  -83.2437  -20.2324 H         1 COA         0.0000 
     56 H3B        88.8713  -85.1623  -22.7140 H         1 COA         0.0000 
     57 H4B        86.2834  -84.3952  -22.3877 H         1 COA         0.0000 
     58 H51A       87.2605  -86.0410  -20.1077 H         1 COA         0.0000 
     59 H52A       85.5523  -85.7014  -20.5474 H         1 COA         0.0000 
     60 H121       84.6753  -88.9064  -18.3050 H         1 COA         0.0000 
     61 H122       85.2421  -90.4441  -17.5697 H         1 COA         0.0000 
     62 H131       88.0860  -88.4540  -17.0727 H         1 COA         0.0000 
     63 H132       87.7175  -89.8456  -15.9983 H         1 COA         0.0000 
     64 H133       87.7432  -88.1780  -15.3311 H         1 COA         0.0000 
     65 H141       86.1780  -86.9326  -17.8451 H         1 COA         0.0000 
     66 H142       85.8437  -86.5184  -16.1295 H         1 COA         0.0000 
     67 H143       84.5265  -87.1522  -17.1735 H         1 COA         0.0000 
     68 H10        85.5087  -90.1600  -15.0118 H         1 COA         0.0000 
     69 HN8        83.5757  -87.5785  -14.0977 H         1 COA         0.0000 
     70 H71        81.2320  -87.2366  -15.1965 H         1 COA         0.0000 
     71 H72        81.1319  -89.0242  -15.3425 H         1 COA         0.0000 
     72 H61        81.4621  -87.4441  -12.7195 H         1 COA         0.0000 
     73 H62        79.9511  -88.2397  -13.2766 H         1 COA         0.0000 
     74 HN4        81.7547  -88.3956  -10.9785 H         1 COA         0.0000 
     75 H31        82.9779  -91.2173  -11.0242 H         1 COA         0.0000 
     76 H32        82.8431  -90.1313   -9.5998 H         1 COA         0.0000 
     77 H21        80.3736  -90.6017   -9.5181 H         1 COA         0.0000 
     78 H22        80.5724  -91.7559  -10.8800 H         1 COA         0.0000 
     79 HS1        80.6217  -93.2588   -8.4145 H         1 COA         0.0000 
@<TRIPOS>BOND
     1    1    2 ar   
     2    1    6 ar   
     3    2    3 ar   
     4    2   49 1    
     5    3    4 ar   
     6    4    5 ar   
     7    4   10 ar   
     8    5    6 ar   
     9    5    8 ar   
    10    6    7 1    
    11    7   50 1    
    12    7   51 1    
    13    8    9 ar   
    14    9   10 ar   
    15    9   52 1    
    16   10   11 1    
    17   11   12 1    
    18   11   21 1    
    19   11   53 1    
    20   12   13 1    
    21   12   14 1    
    22   12   54 1    
    23   13   55 1    
    24   14   15 1    
    25   14   20 1    
    26   14   56 1    
    27   15   16 1    
    28   16   17 2    
    29   16   18 1    
    30   16   19 1    
    31   20   21 1    
    32   20   22 1    
    33   20   57 1    
    34   22   23 1    
    35   22   58 1    
    36   22   59 1    
    37   23   24 1    
    38   24   25 2    
    39   24   26 1    
    40   24   27 1    
    41   27   28 1    
    42   28   29 2    
    43   28   30 1    
    44   28   31 1    
    45   31   33 1    
    46   32   33 1    
    47   32   34 1    
    48   32   35 1    
    49   32   36 1    
    50   33   60 1    
    51   33   61 1    
    52   34   62 1    
    53   34   63 1    
    54   34   64 1    
    55   35   65 1    
    56   35   66 1    
    57   35   67 1    
    58   36   37 1    
    59   36   38 1    
    60   36   68 1    
    61   38   39 2    
    62   38   40 am   BACKBONE|DICT|INTERRES
    63   40   41 1    
    64   40   69 1    
    65   41   42 1    
    66   41   70 1    
    67   41   71 1    
    68   42   43 1    
    69   42   72 1    
    70   42   73 1    
    71   43   44 2    
    72   43   45 am   BACKBONE|DICT|INTERRES
    73   45   46 1    
    74   45   74 1    
    75   46   47 1    
    76   46   75 1    
    77   46   76 1    
    78   47   48 1    
    79   47   77 1    
    80   47   78 1    
    81   48   79 1    
@<TRIPOS>SUBSTRUCTURE
     1 COA         1 GROUP             0       ****    0 ROOT    
@<TRIPOS>MOLECULE
COA
79   81    1
SMALL
USER_CHARGES


@<TRIPOS>ATOM
      1 N1A        88.6040  -84.6940  -15.4010 N.ar      1 COA         0.0000 
      2 C2A        88.5170  -85.3620  -16.6140 C.ar      1 COA         0.0000 
      3 N3A        88.4530  -84.8110  -17.8270 N.ar      1 COA         0.0000 
      4 C4A        88.4890  -83.4640  -17.7910 C.ar      1 COA         0.0000 
      5 C5A        88.5780  -82.6230  -16.6440 C.ar      1 COA         0.0000 
      6 C6A        88.6370  -83.3150  -15.3450 C.ar      1 COA         0.0000 
      7 N6A        88.7190  -82.6940  -14.2090 N.2       1 COA         0.0000 
      8 N7A        88.5930  -81.3110  -16.9840 N.2       1 COA         0.0000 
      9 C8A        88.5140  -81.2930  -18.3130 C.ar      1 COA         0.0000 
     10 N9A        88.4440  -82.5690  -18.8600 N.pl3     1 COA         0.0000 
     11 C1B        88.2830  -82.8930  -20.3050 C.3       1 COA         0.0000 
     12 C2B        89.1690  -84.0030  -20.8100 C.3       1 COA         0.0000 
     13 O2B        90.4930  -83.5370  -21.0680 O.3       1 COA         0.0000 
     14 C3B        88.4470  -84.3520  -22.1030 C.3       1 COA         0.0000 
     15 O3B        88.5340  -83.3380  -23.0200 O.3       1 COA         0.0000 
     16 P3B        88.5670  -83.7630  -24.6320 P.3       1 COA         0.0000 
     17 O7A        89.7760  -84.7730  -24.8120 O.co2     1 COA         0.0000 
     18 O8A        88.8680  -82.4540  -25.4620 O.co2     1 COA         0.0000 
     19 O9A        87.1870  -84.4450  -25.0050 O.co2     1 COA         0.0000 
     20 C4B        86.9970  -84.4910  -21.5560 C.3       1 COA         0.0000 
     21 O4B        86.9570  -83.4610  -20.4760 O.3       1 COA         0.0000 
     22 C5B        86.5780  -85.7930  -20.9340 C.3       1 COA         0.0000 
     23 O5B        86.6630  -86.7650  -22.0150 O.3       1 COA         0.0000 
     24 P1A        85.5120  -87.8990  -22.1320 P.3       1 COA         0.0000 
     25 O1A        85.9730  -88.8420  -23.2310 O.co2     1 COA         0.0000 
     26 O2A        84.1350  -87.3250  -22.2760 O.co2     1 COA         0.0000 
     27 O3A        85.5440  -88.6720  -20.8060 O.3       1 COA         0.0000 
     28 P2A        86.5260  -89.8380  -20.2320 P.3       1 COA         0.0000 
     29 O4A        85.9410  -91.2220  -20.3870 O.co2     1 COA         0.0000 
     30 O5A        87.9130  -89.7660  -20.8150 O.co2     1 COA         0.0000 
     31 O6A        86.6310  -89.4110  -18.6740 O.3       1 COA         0.0000 
     32 CBP        85.9600  -88.6360  -16.5360 C.3       1 COA         0.0000 
     33 CCP        85.5210  -89.4080  -17.8120 C.3       1 COA         0.0000 
     34 CDP        87.4920  -88.7900  -16.2100 C.3       1 COA         0.0000 
     35 CEP        85.6020  -87.2100  -16.9500 C.3       1 COA         0.0000 
     36 CAP        85.1850  -89.1370  -15.2540 C.3       1 COA         0.0000 
     37 OAP        85.5020  -88.2660  -14.1280 O.3       1 COA         0.0000 
     38 C9P        83.6680  -89.1660  -15.4160 C.2       1 COA         0.0000 
     39 O9P        83.0890  -90.0690  -16.2240 O.2       1 COA         0.0000 
     40 N8P        82.9960  -88.2770  -14.7190 N.am      1 COA         0.0000 
     41 C7P        81.5360  -88.1930  -14.7460 C.3       1 COA         0.0000 
     42 C6P        81.0500  -88.2840  -13.2980 C.3       1 COA         0.0000 
     43 C5P        81.4830  -89.5720  -12.6330 C.2       1 COA         0.0000 
     44 O5P        81.5080  -90.7220  -13.2480 O.2       1 COA         0.0000 
     45 N4P        81.8280  -89.4210  -11.3700 N.am      1 COA         0.0000 
     46 C3P        82.3050  -90.5540  -10.4610 C.3       1 COA         0.0000 
     47 C2P        81.0660  -91.3020  -10.0080 C.3       1 COA         0.0000 
     48 S1P        81.4370  -92.6410   -8.8190 S.3       1 COA         0.0000 
     49 H2A        88.4990  -86.4230  -16.5720 H         1 COA         0.0000 
     50 H62A       88.7598  -83.2668  -13.2708 H         1 COA         0.0000 
     51 H8A        88.5050  -80.4030  -18.8910 H         1 COA         0.0000 
     52 H1B        88.4770  -81.9515  -20.8397 H         1 COA         0.0000 
     53 H2B        89.3598  -84.8274  -20.1072 H         1 COA         0.0000 
     54 HO2A       91.1454  -83.2437  -20.2324 H         1 COA         0.0000 
     55 H3B        88.8713  -85.1623  -22.7140 H         1 COA         0.0000 
     56 H4B        86.2834  -84.3952  -22.3877 H         1 COA         0.0000 
     57 H51A       87.2605  -86.0410  -20.1077 H         1 COA         0.0000 
     58 H52A       85.5523  -85.7014  -20.5474 H         1 COA         0.0000 
     59 H121       84.6753  -88.9064  -18.3050 H         1 COA         0.0000 
     60 H122       85.2421  -90.4441  -17.5697 H         1 COA         0.0000 
     61 H131       88.0860  -88.4540  -17.0727 H         1 COA         0.0000 
     62 H132       87.7175  -89.8456  -15.9983 H         1 COA         0.0000 
     63 H133       87.7432  -88.1780  -15.3311 H         1 COA         0.0000 
     64 H141       86.1780  -86.9326  -17.8451 H         1 COA         0.0000 
     65 H142       85.8437  -86.5184  -16.1295 H         1 COA         0.0000 
     66 H143       84.5265  -87.1522  -17.1735 H         1 COA         0.0000 
     67 H10        85.5087  -90.1600  -15.0118 H         1 COA         0.0000 
     68 HO1        86.5501  -88.1036  -13.8363 H         1 COA         0.0000 
     69 HN8        83.5757  -87.5785  -14.0977 H         1 COA         0.0000 
     70 H71        81.2320  -87.2366  -15.1965 H         1 COA         0.0000 
     71 H72        81.1319  -89.0242  -15.3425 H         1 COA         0.0000 
     72 H61        81.4621  -87.4441  -12.7195 H         1 COA         0.0000 
     73 H62        79.9511  -88.2397  -13.2766 H         1 COA         0.0000 
     74 HN4        81.7547  -88.3956  -10.9785 H         1 COA         0.0000 
     75 H31        82.9779  -91.2173  -11.0242 H         1 COA         0.0000 
     76 H32        82.8431  -90.1313   -9.5998 H         1 COA         0.0000 
     77 H21        80.3736  -90.6017   -9.5181 H         1 COA         0.0000 
     78 H22        80.5724  -91.7559  -10.8800 H         1 COA         0.0000 
     79 HS1        80.6217  -93.2588   -8.4145 H         1 COA         0.0000 
@<TRIPOS>BOND
     1    1    2 ar   
     2    1    6 ar   
     3    2    3 ar   
     4    2   49 1    
     5    3    4 ar   
     6    4    5 ar   
     7    4   10 ar   
     8    5    6 ar   
     9    5    8 ar   
    10    6    7 1    
    11    7   50 1    
    12    8    9 ar   
    13    9   10 ar   
    14    9   51 1    
    15   10   11 1    
    16   11   12 1    
    17   11   21 1    
    18   11   52 1    
    19   12   13 1    
    20   12   14 1    
    21   12   53 1    
    22   13   54 1    
    23   14   15 1    
    24   14   20 1    
    25   14   55 1    
    26   15   16 1    
    27   16   17 2    
    28   16   18 1    
    29   16   19 1    
    30   20   21 1    
    31   20   22 1    
    32   20   56 1    
    33   22   23 1    
    34   22   57 1    
    35   22   58 1    
    36   23   24 1    
    37   24   25 2    
    38   24   26 1    
    39   24   27 1    
    40   27   28 1    
    41   28   29 2    
    42   28   30 1    
    43   28   31 1    
    44   31   33 1    
    45   32   33 1    
    46   32   34 1    
    47   32   35 1    
    48   32   36 1    
    49   33   59 1    
    50   33   60 1    
    51   34   61 1    
    52   34   62 1    
    53   34   63 1    
    54   35   64 1    
    55   35   65 1    
    56   35   66 1    
    57   36   37 1    
    58   36   38 1    
    59   36   67 1    
    60   37   68 1    
    61   38   39 2    
    62   38   40 am   BACKBONE|DICT|INTERRES
    63   40   41 1    
    64   40   69 1    
    65   41   42 1    
    66   41   70 1    
    67   41   71 1    
    68   42   43 1    
    69   42   72 1    
    70   42   73 1    
    71   43   44 2    
    72   43   45 am   BACKBONE|DICT|INTERRES
    73   45   46 1    
    74   45   74 1    
    75   46   47 1    
    76   46   75 1    
    77   46   76 1    
    78   47   48 1    
    79   47   77 1    
    80   47   78 1    
    81   48   79 1    
@<TRIPOS>SUBSTRUCTURE
     1 COA         1 GROUP             0       ****    0 ROOT    
