@<TRIPOS>MOLECULE
COA
   84    86     1     0     0
SMALL
NO_CHARGES

@<TRIPOS>ATOM
      1  N1A       88.6040  -84.6940  -15.4010 N.ar      1 COA         0.0000
      2  C2A       88.5170  -85.3620  -16.6140 C.ar      1 COA         0.0000
      3  N3A       88.4530  -84.8110  -17.8270 N.ar      1 COA         0.0000
      4  C4A       88.4890  -83.4640  -17.7910 C.ar      1 COA         0.0000
      5  C5A       88.5780  -82.6230  -16.6440 C.ar      1 COA         0.0000
      6  C6A       88.6370  -83.3150  -15.3450 C.ar      1 COA         0.0000
      7  N6A       88.7190  -82.6940  -14.2090 N.pl3     1 COA         0.0000
      8  N7A       88.5930  -81.3110  -16.9840 N.ar      1 COA         0.0000
      9  C8A       88.5140  -81.2930  -18.3130 C.ar      1 COA         0.0000
     10  N9A       88.4440  -82.5690  -18.8600 N.pl3     1 COA         0.0000
     11  C1B       88.2830  -82.8930  -20.3050 C.3       1 COA         0.0000
     12  C2B       89.1690  -84.0030  -20.8100 C.3       1 COA         0.0000
     13  O2B       90.4930  -83.5370  -21.0680 O.3       1 COA         0.0000
     14  C3B       88.4470  -84.3520  -22.1030 C.3       1 COA         0.0000
     15  O3B       88.5340  -83.3380  -23.0200 O.3       1 COA         0.0000
     16  P3B       88.5670  -83.7630  -24.6320 P.3       1 COA         0.0000
     17  O7A       89.7760  -84.7730  -24.8120 O.2       1 COA         0.0000
     18  O8A       88.8680  -82.4540  -25.4620 O.3       1 COA         0.0000
     19  O9A       87.1870  -84.4450  -25.0050 O.3       1 COA         0.0000
     20  C4B       86.9970  -84.4910  -21.5560 C.3       1 COA         0.0000
     21  O4B       86.9570  -83.4610  -20.4760 O.3       1 COA         0.0000
     22  C5B       86.5780  -85.7930  -20.9340 C.3       1 COA         0.0000
     23  O5B       86.6630  -86.7650  -22.0150 O.3       1 COA         0.0000
     24  P1A       85.5120  -87.8990  -22.1320 P.3       1 COA         0.0000
     25  O1A       85.9730  -88.8420  -23.2310 O.2       1 COA         0.0000
     26  O2A       84.1350  -87.3250  -22.2760 O.3       1 COA         0.0000
     27  O3A       85.5440  -88.6720  -20.8060 O.3       1 COA         0.0000
     28  P2A       86.5260  -89.8380  -20.2320 P.3       1 COA         0.0000
     29  O4A       85.9410  -91.2220  -20.3870 O.2       1 COA         0.0000
     30  O5A       87.9130  -89.7660  -20.8150 O.3       1 COA         0.0000
     31  O6A       86.6310  -89.4110  -18.6740 O.3       1 COA         0.0000
     32  CBP       85.9600  -88.6360  -16.5360 C.3       1 COA         0.0000
     33  CCP       85.5210  -89.4080  -17.8120 C.3       1 COA         0.0000
     34  CDP       87.4920  -88.7900  -16.2100 C.3       1 COA         0.0000
     35  CEP       85.6020  -87.2100  -16.9500 C.3       1 COA         0.0000
     36  CAP       85.1850  -89.1370  -15.2540 C.3       1 COA         0.0000
     37  OAP       85.5020  -88.2660  -14.1280 O.3       1 COA         0.0000
     38  C9P       83.6680  -89.1660  -15.4160 C.2       1 COA         0.0000
     39  O9P       83.0890  -90.0690  -16.2240 O.2       1 COA         0.0000
     40  N8P       82.9960  -88.2770  -14.7190 N.am      1 COA         0.0000
     41  C7P       81.5360  -88.1930  -14.7460 C.3       1 COA         0.0000
     42  C6P       81.0500  -88.2840  -13.2980 C.3       1 COA         0.0000
     43  C5P       81.4830  -89.5720  -12.6330 C.2       1 COA         0.0000
     44  O5P       81.5080  -90.7220  -13.2480 O.2       1 COA         0.0000
     45  N4P       81.8280  -89.4210  -11.3700 N.am      1 COA         0.0000
     46  C3P       82.3050  -90.5540  -10.4610 C.3       1 COA         0.0000
     47  C2P       81.0660  -91.3020  -10.0080 C.3       1 COA         0.0000
     48  S1P       81.4370  -92.6410   -8.8190 S.3       1 COA         0.0000
     49  H2A       88.4990  -86.4230  -16.5720 H         1 COA         0.0000
     50 H61A       88.7590  -83.2120  -13.3610 H         1 COA         0.0000
     51 H62A       88.7420  -81.7000  -14.1860 H         1 COA         0.0000
     52  H8A       88.5050  -80.4030  -18.8910 H         1 COA         0.0000
     53  H1B       88.5060  -81.9570  -20.8370 H         1 COA         0.0000
     54  H2B       89.3040  -84.8410  -20.1110 H         1 COA         0.0000
     55 HO2A       91.0990  -84.3110  -21.1860 H         1 COA         0.0000
     56  H3B       88.8400  -85.2310  -22.6340 H         1 COA         0.0000
     57 HOA8       88.8870  -82.6960  -26.3800 H         1 COA         0.0000
     58 HOA9       87.2870  -85.4300  -24.9780 H         1 COA         0.0000
     59  H4B       86.3140  -84.3960  -22.4130 H         1 COA         0.0000
     60 H51A       87.2570  -86.0660  -20.1130 H         1 COA         0.0000
     61 H52A       85.5680  -85.7410  -20.5010 H         1 COA         0.0000
     62 HOA2       83.4600  -87.9900  -22.3450 H         1 COA         0.0000
     63 HOA5       88.4860  -90.4460  -20.4800 H         1 COA         0.0000
     64 H121       84.6700  -88.9010  -18.2890 H         1 COA         0.0000
     65 H122       85.2010  -90.4320  -17.5690 H         1 COA         0.0000
     66 H131       87.7500  -89.8580  -16.1550 H         1 COA         0.0000
     67 H132       88.0850  -88.3100  -17.0020 H         1 COA         0.0000
     68 H133       87.7110  -88.3100  -15.2450 H         1 COA         0.0000
     69 H141       84.5080  -87.1010  -16.9820 H         1 COA         0.0000
     70 H142       86.0200  -86.5010  -16.2210 H         1 COA         0.0000
     71 H143       86.0200  -87.0020  -17.9460 H         1 COA         0.0000
     72  H10       85.5160  -90.1720  -15.0850 H         1 COA         0.0000
     73  HO1       84.6630  -87.9450  -13.7120 H         1 COA         0.0000
     74  HN8       83.5010  -87.6350  -14.1500 H         1 COA         0.0000
     75  H71       81.2220  -87.2370  -15.1890 H         1 COA         0.0000
     76  H72       81.1100  -89.0060  -15.3520 H         1 COA         0.0000
     77  H61       81.4620  -87.4360  -12.7310 H         1 COA         0.0000
     78  H62       79.9500  -88.2600  -13.3070 H         1 COA         0.0000
     79  HN4       81.7740  -88.5070  -10.9810 H         1 COA         0.0000
     80  H31       82.9730  -91.2290  -11.0160 H         1 COA         0.0000
     81  H32       82.8660  -90.1610   -9.6000 H         1 COA         0.0000
     82  H21       80.3800  -90.5880   -9.5290 H         1 COA         0.0000
     83  H22       80.6170  -91.7670  -10.8980 H         1 COA         0.0000
     84  HS1       80.6610  -93.1100   -8.5350 H         1 COA         0.0000
@<TRIPOS>BOND
     1    1    2 ar
     2    1    6 ar
     3    2    3 ar
     4    2   49 1
     5    3    4 ar
     6    4    5 ar
     7    4   10 ar
     8    5    6 ar
     9    5    8 ar
    10    6    7 1
    11    7   50 1
    12    7   51 1
    13    8    9 ar
    14    9   10 ar
    15    9   52 1
    16   10   11 1
    17   11   12 1
    18   11   21 1
    19   11   53 1
    20   12   13 1
    21   12   14 1
    22   12   54 1
    23   13   55 1
    24   14   15 1
    25   14   20 1
    26   14   56 1
    27   15   16 1
    28   16   17 2
    29   16   18 1
    30   16   19 1
    31   18   57 1
    32   19   58 1
    33   20   21 1
    34   20   22 1
    35   20   59 1
    36   22   23 1
    37   22   60 1
    38   22   61 1
    39   23   24 1
    40   24   25 2
    41   24   26 1
    42   24   27 1
    43   26   62 1
    44   27   28 1
    45   28   29 2
    46   28   30 1
    47   28   31 1
    48   30   63 1
    49   31   33 1
    50   32   33 1
    51   32   34 1
    52   32   35 1
    53   32   36 1
    54   33   64 1
    55   33   65 1
    56   34   66 1
    57   34   67 1
    58   34   68 1
    59   35   69 1
    60   35   70 1
    61   35   71 1
    62   36   37 1
    63   36   38 1
    64   36   72 1
    65   37   73 1
    66   38   39 2
    67   38   40 am
    68   40   41 1
    69   40   74 1
    70   41   42 1
    71   41   75 1
    72   41   76 1
    73   42   43 1
    74   42   77 1
    75   42   78 1
    76   43   44 2
    77   43   45 am
    78   45   46 1
    79   45   79 1
    80   46   47 1
    81   46   80 1
    82   46   81 1
    83   47   48 1
    84   47   82 1
    85   47   83 1
    86   48   84 1
@<TRIPOS>SUBSTRUCTURE
     1 COA         1 GROUP 0 A     ****
