@<TRIPOS>MOLECULE
[5-(6-aminopurin-9-yl)-4-hydroxy-2-[[[[3-hydroxy-2,2-dimethyl-4-oxo-4-[[3-oxo-3-(2-sulfidoethylamino)propyl]amino]butoxy]-oxido-phosphoryl]oxy-oxido-phosphoryl]oxymethyl]tetrahydrofuran-3-yl] phosphate
   79    81     1     0     0
SMALL
USER_CHARGES

@<TRIPOS>ATOM
      1 N1A        88.6040  -84.6940  -15.4010 N.ar      1 COA        -0.8236
      2 C2A        88.5170  -85.3620  -16.6140 C.ar      1 COA         0.6136
      3 N3A        88.4530  -84.8110  -17.8270 N.ar      1 COA        -0.6607
      4 C4A        88.4890  -83.4640  -17.7910 C.ar      1 COA         0.5602
      5 C5A        88.5780  -82.6230  -16.6440 C.ar      1 COA        -0.1934
      6 C6A        88.6370  -83.3150  -15.3450 C.ar      1 COA         0.6531
      7 N6A        88.7190  -82.6940  -14.2090 N.pl3     1 COA        -0.9183
      8 N7A        88.5930  -81.3110  -16.9840 N.ar      1 COA        -0.6238
      9 C8A        88.5140  -81.2930  -18.3130 C.ar      1 COA         0.5872
     10 N9A        88.4440  -82.5690  -18.8600 N.pl3     1 COA        -0.6280
     11 C1B        88.2830  -82.8930  -20.3050 C.3       1 COA         0.3813
     12 C2B        89.1690  -84.0030  -20.8100 C.3       1 COA         0.0813
     13 O2B        90.4930  -83.5370  -21.0680 O.3       1 COA        -0.6312
     14 C3B        88.4470  -84.3520  -22.1030 C.3       1 COA         0.2107
     15 O3B        88.5340  -83.3380  -23.0200 O.3       1 COA        -0.5599
     16 P3B        88.5670  -83.7630  -24.6320 P.3       1 COA         1.3103
     17 O7A        89.7760  -84.7730  -24.8120 O.2       1 COA        -0.9249
     18 O8A        88.8680  -82.4540  -25.4620 O.3       1 COA        -0.9249
     19 O9A        87.1870  -84.4450  -25.0050 O.3       1 COA        -0.9249
     20 C4B        86.9970  -84.4910  -21.5560 C.3       1 COA         0.0957
     21 O4B        86.9570  -83.4610  -20.4760 O.3       1 COA        -0.4351
     22 C5B        86.5780  -85.7930  -20.9340 C.3       1 COA         0.1679
     23 O5B        86.6630  -86.7650  -22.0150 O.3       1 COA        -0.5824
     24 P1A        85.5120  -87.8990  -22.1320 P.3       1 COA         1.5928
     25 O1A        85.9730  -88.8420  -23.2310 O.2       1 COA        -0.8926
     26 O2A        84.1350  -87.3250  -22.2760 O.3       1 COA        -0.8926
     27 O3A        85.5440  -88.6720  -20.8060 O.3       1 COA        -0.8199
     28 P2A        86.5260  -89.8380  -20.2320 P.3       1 COA         1.5991
     29 O4A        85.9410  -91.2220  -20.3870 O.2       1 COA        -0.8924
     30 O5A        87.9130  -89.7660  -20.8150 O.3       1 COA        -0.8924
     31 O6A        86.6310  -89.4110  -18.6740 O.3       1 COA        -0.5919
     32 CBP        85.9600  -88.6360  -16.5360 C.3       1 COA        -0.0644
     33 CCP        85.5210  -89.4080  -17.8120 C.3       1 COA         0.1939
     34 CDP        87.4920  -88.7900  -16.2100 C.3       1 COA        -0.0888
     35 CEP        85.6020  -87.2100  -16.9500 C.3       1 COA        -0.0888
     36 CAP        85.1850  -89.1370  -15.2540 C.3       1 COA         0.1019
     37 OAP        85.5020  -88.2660  -14.1280 O.3       1 COA        -0.5369
     38 C9P        83.6680  -89.1660  -15.4160 C.2       1 COA         0.6257
     39 O9P        83.0890  -90.0690  -16.2240 O.2       1 COA        -0.6302
     40 N8P        82.9960  -88.2770  -14.7190 N.am      1 COA        -0.5983
     41 C7P        81.5360  -88.1930  -14.7460 C.3       1 COA         0.1055
     42 C6P        81.0500  -88.2840  -13.2980 C.3       1 COA        -0.1805
     43 C5P        81.4830  -89.5720  -12.6330 C.2       1 COA         0.6475
     44 O5P        81.5080  -90.7220  -13.2480 O.2       1 COA        -0.6285
     45 N4P        81.8280  -89.4210  -11.3700 N.am      1 COA        -0.5647
     46 C3P        82.3050  -90.5540  -10.4610 C.3       1 COA         0.0782
     47 C2P        81.0660  -91.3020  -10.0080 C.3       1 COA         0.0638
     48 S1P        81.4370  -92.6410   -8.8190 S.3       1 COA        -1.0094
     49 H2A        88.4990  -86.4230  -16.5720 H         1 COA         0.0187
     50 H61A       88.7598  -83.2668  -13.2708 H         1 COA         0.3809
     51 H62A       88.7477  -81.5947  -14.1840 H         1 COA         0.3809
     52 H8A        88.5050  -80.4030  -18.8910 H         1 COA         0.1409
     53 H1B        88.4770  -81.9515  -20.8397 H         1 COA         0.0952
     54 H2B        89.3598  -84.8274  -20.1072 H         1 COA         0.0546
     55 HO2A       91.1454  -83.2437  -20.2324 H         1 COA         0.4486
     56 H3B        88.8713  -85.1623  -22.7140 H         1 COA         0.0764
     57 H4B        86.2834  -84.3952  -22.3877 H         1 COA         0.1304
     58 H51A       87.2605  -86.0410  -20.1077 H         1 COA         0.0321
     59 H52A       85.5523  -85.7014  -20.5474 H         1 COA         0.0321
     60 H121       84.6753  -88.9064  -18.3050 H         1 COA         0.0531
     61 H122       85.2421  -90.4441  -17.5697 H         1 COA         0.0531
     62 H131       88.0860  -88.4540  -17.0727 H         1 COA         0.0317
     63 H132       87.7175  -89.8456  -15.9983 H         1 COA         0.0317
     64 H133       87.7432  -88.1780  -15.3311 H         1 COA         0.0317
     65 H141       86.1780  -86.9326  -17.8451 H         1 COA         0.0317
     66 H142       85.8437  -86.5184  -16.1295 H         1 COA         0.0317
     67 H143       84.5265  -87.1522  -17.1735 H         1 COA         0.0317
     68 H10        85.5087  -90.1600  -15.0118 H         1 COA         0.0867
     69 HO1        86.5501  -88.1036  -13.8363 H         1 COA         0.4100
     70 HN8        83.5757  -87.5785  -14.0977 H         1 COA         0.3110
     71 H71        81.2320  -87.2366  -15.1965 H         1 COA         0.0591
     72 H72        81.1319  -89.0242  -15.3425 H         1 COA         0.0591
     73 H61        81.4621  -87.4441  -12.7195 H         1 COA         0.0586
     74 H62        79.9511  -88.2397  -13.2766 H         1 COA         0.0586
     75 HN4        81.7547  -88.3956  -10.9785 H         1 COA         0.2843
     76 H31        82.9779  -91.2173  -11.0242 H         1 COA         0.0561
     77 H32        82.8431  -90.1313   -9.5998 H         1 COA         0.0561
     78 H21        80.3736  -90.6017   -9.5181 H         1 COA         0.0036
     79 H22        80.5724  -91.7559  -10.8800 H         1 COA         0.0036
@<TRIPOS>BOND
     1    1    2 ar
     2    1    6 ar
     3    2    3 ar
     4    2   49 1
     5    3    4 ar
     6    4    5 ar
     7    4   10 ar
     8    5    6 ar
     9    5    8 ar
    10    6    7 1
    11    7   50 1
    12    7   51 1
    13    8    9 ar
    14    9   10 ar
    15    9   52 1
    16   10   11 1
    17   11   12 1
    18   11   21 1
    19   11   53 1
    20   12   13 1
    21   12   14 1
    22   12   54 1
    23   13   55 1
    24   14   15 1
    25   14   20 1
    26   14   56 1
    27   15   16 1
    28   16   17 2
    29   16   18 1
    30   16   19 1
    31   20   21 1
    32   20   22 1
    33   20   57 1
    34   22   23 1
    35   22   58 1
    36   22   59 1
    37   23   24 1
    38   24   25 2
    39   24   26 1
    40   24   27 1
    41   27   28 1
    42   28   29 2
    43   28   30 1
    44   28   31 1
    45   31   33 1
    46   32   33 1
    47   32   34 1
    48   32   35 1
    49   32   36 1
    50   33   60 1
    51   33   61 1
    52   34   62 1
    53   34   63 1
    54   34   64 1
    55   35   65 1
    56   35   66 1
    57   35   67 1
    58   36   37 1
    59   36   38 1
    60   36   68 1
    61   37   69 1
    62   38   39 2
    63   38   40 am
    64   40   41 1
    65   40   70 1
    66   41   42 1
    67   41   71 1
    68   41   72 1
    69   42   43 1
    70   42   73 1
    71   42   74 1
    72   43   44 2
    73   43   45 am
    74   45   46 1
    75   45   75 1
    76   46   47 1
    77   46   76 1
    78   46   77 1
    79   47   48 1
    80   47   78 1
    81   47   79 1
@<TRIPOS>SUBSTRUCTURE
     1 COA         1 GROUP   0 A     ****
@<TRIPOS>MOLECULE
[5-(6-aminopurin-9-yl)-4-hydroxy-2-[[[[3-hydroxy-2,2-dimethyl-4-oxo-4-[[3-oxo-3-(2-sulfanylethylamino)propyl]amino]butoxy]-oxido-phosphoryl]oxy-oxido-phosphoryl]oxymethyl]tetrahydrofuran-3-yl] phosphate
   80    82     1     0     0
SMALL
USER_CHARGES

@<TRIPOS>ATOM
      1 N1A        88.6040  -84.6940  -15.4010 N.ar      1 COA        -0.8194
      2 C2A        88.5170  -85.3620  -16.6140 C.ar      1 COA         0.6164
      3 N3A        88.4530  -84.8110  -17.8270 N.ar      1 COA        -0.6634
      4 C4A        88.4890  -83.4640  -17.7910 C.ar      1 COA         0.5616
      5 C5A        88.5780  -82.6230  -16.6440 C.ar      1 COA        -0.1957
      6 C6A        88.6370  -83.3150  -15.3450 C.ar      1 COA         0.6592
      7 N6A        88.7190  -82.6940  -14.2090 N.pl3     1 COA        -0.9209
      8 N7A        88.5930  -81.3110  -16.9840 N.ar      1 COA        -0.6212
      9 C8A        88.5140  -81.2930  -18.3130 C.ar      1 COA         0.5844
     10 N9A        88.4440  -82.5690  -18.8600 N.pl3     1 COA        -0.6339
     11 C1B        88.2830  -82.8930  -20.3050 C.3       1 COA         0.3820
     12 C2B        89.1690  -84.0030  -20.8100 C.3       1 COA         0.0894
     13 O2B        90.4930  -83.5370  -21.0680 O.3       1 COA        -0.6257
     14 C3B        88.4470  -84.3520  -22.1030 C.3       1 COA         0.1992
     15 O3B        88.5340  -83.3380  -23.0200 O.3       1 COA        -0.5566
     16 P3B        88.5670  -83.7630  -24.6320 P.3       1 COA         1.3104
     17 O7A        89.7760  -84.7730  -24.8120 O.2       1 COA        -0.9270
     18 O8A        88.8680  -82.4540  -25.4620 O.3       1 COA        -0.9270
     19 O9A        87.1870  -84.4450  -25.0050 O.3       1 COA        -0.9270
     20 C4B        86.9970  -84.4910  -21.5560 C.3       1 COA         0.0957
     21 O4B        86.9570  -83.4610  -20.4760 O.3       1 COA        -0.4377
     22 C5B        86.5780  -85.7930  -20.9340 C.3       1 COA         0.1723
     23 O5B        86.6630  -86.7650  -22.0150 O.3       1 COA        -0.5870
     24 P1A        85.5120  -87.8990  -22.1320 P.3       1 COA         1.5967
     25 O1A        85.9730  -88.8420  -23.2310 O.2       1 COA        -0.8874
     26 O2A        84.1350  -87.3250  -22.2760 O.3       1 COA        -0.8874
     27 O3A        85.5440  -88.6720  -20.8060 O.3       1 COA        -0.8200
     28 P2A        86.5260  -89.8380  -20.2320 P.3       1 COA         1.6132
     29 O4A        85.9410  -91.2220  -20.3870 O.2       1 COA        -0.9023
     30 O5A        87.9130  -89.7660  -20.8150 O.3       1 COA        -0.9023
     31 O6A        86.6310  -89.4110  -18.6740 O.3       1 COA        -0.5904
     32 CBP        85.9600  -88.6360  -16.5360 C.3       1 COA        -0.0952
     33 CCP        85.5210  -89.4080  -17.8120 C.3       1 COA         0.1929
     34 CDP        87.4920  -88.7900  -16.2100 C.3       1 COA        -0.0872
     35 CEP        85.6020  -87.2100  -16.9500 C.3       1 COA        -0.0872
     36 CAP        85.1850  -89.1370  -15.2540 C.3       1 COA         0.1119
     37 OAP        85.5020  -88.2660  -14.1280 O.3       1 COA        -0.6280
     38 C9P        83.6680  -89.1660  -15.4160 C.2       1 COA         0.6730
     39 O9P        83.0890  -90.0690  -16.2240 O.2       1 COA        -0.6346
     40 N8P        82.9960  -88.2770  -14.7190 N.am      1 COA        -0.5997
     41 C7P        81.5360  -88.1930  -14.7460 C.3       1 COA         0.1216
     42 C6P        81.0500  -88.2840  -13.2980 C.3       1 COA        -0.1831
     43 C5P        81.4830  -89.5720  -12.6330 C.2       1 COA         0.6682
     44 O5P        81.5080  -90.7220  -13.2480 O.2       1 COA        -0.6116
     45 N4P        81.8280  -89.4210  -11.3700 N.am      1 COA        -0.6044
     46 C3P        82.3050  -90.5540  -10.4610 C.3       1 COA         0.1026
     47 C2P        81.0660  -91.3020  -10.0080 C.3       1 COA        -0.0126
     48 S1P        81.4370  -92.6410   -8.8190 S.3       1 COA        -0.4287
     49 H2A        88.4990  -86.4230  -16.5720 H         1 COA         0.0210
     50 H61A       88.7598  -83.2668  -13.2708 H         1 COA         0.3850
     51 H62A       88.7477  -81.5947  -14.1840 H         1 COA         0.3850
     52 H8A        88.5050  -80.4030  -18.8910 H         1 COA         0.1359
     53 H1B        88.4770  -81.9515  -20.8397 H         1 COA         0.0887
     54 H2B        89.3598  -84.8274  -20.1072 H         1 COA         0.0540
     55 HO2A       91.1454  -83.2437  -20.2324 H         1 COA         0.4497
     56 H3B        88.8713  -85.1623  -22.7140 H         1 COA         0.0853
     57 H4B        86.2834  -84.3952  -22.3877 H         1 COA         0.1199
     58 H51A       87.2605  -86.0410  -20.1077 H         1 COA         0.0346
     59 H52A       85.5523  -85.7014  -20.5474 H         1 COA         0.0346
     60 H121       84.6753  -88.9064  -18.3050 H         1 COA         0.0511
     61 H122       85.2421  -90.4441  -17.5697 H         1 COA         0.0511
     62 H131       88.0860  -88.4540  -17.0727 H         1 COA         0.0365
     63 H132       87.7175  -89.8456  -15.9983 H         1 COA         0.0365
     64 H133       87.7432  -88.1780  -15.3311 H         1 COA         0.0365
     65 H141       86.1780  -86.9326  -17.8451 H         1 COA         0.0365
     66 H142       85.8437  -86.5184  -16.1295 H         1 COA         0.0365
     67 H143       84.5265  -87.1522  -17.1735 H         1 COA         0.0365
     68 H10        85.5087  -90.1600  -15.0118 H         1 COA         0.0722
     69 HO1        86.5501  -88.1036  -13.8363 H         1 COA         0.4666
     70 HN8        83.5757  -87.5785  -14.0977 H         1 COA         0.3260
     71 H71        81.2320  -87.2366  -15.1965 H         1 COA         0.0573
     72 H72        81.1319  -89.0242  -15.3425 H         1 COA         0.0573
     73 H61        81.4621  -87.4441  -12.7195 H         1 COA         0.0756
     74 H62        79.9511  -88.2397  -13.2766 H         1 COA         0.0756
     75 HN4        81.7547  -88.3956  -10.9785 H         1 COA         0.3100
     76 H31        82.9779  -91.2173  -11.0242 H         1 COA         0.0572
     77 H32        82.8431  -90.1313   -9.5998 H         1 COA         0.0572
     78 H21        80.3736  -90.6017   -9.5181 H         1 COA         0.0766
     79 H22        80.5724  -91.7559  -10.8800 H         1 COA         0.0766
     80 HS1        80.6217  -93.2588   -8.4145 H         1 COA         0.2312
@<TRIPOS>BOND
     1    1    2 ar
     2    1    6 ar
     3    2    3 ar
     4    2   49 1
     5    3    4 ar
     6    4    5 ar
     7    4   10 ar
     8    5    6 ar
     9    5    8 ar
    10    6    7 1
    11    7   50 1
    12    7   51 1
    13    8    9 ar
    14    9   10 ar
    15    9   52 1
    16   10   11 1
    17   11   12 1
    18   11   21 1
    19   11   53 1
    20   12   13 1
    21   12   14 1
    22   12   54 1
    23   13   55 1
    24   14   15 1
    25   14   20 1
    26   14   56 1
    27   15   16 1
    28   16   17 2
    29   16   18 1
    30   16   19 1
    31   20   21 1
    32   20   22 1
    33   20   57 1
    34   22   23 1
    35   22   58 1
    36   22   59 1
    37   23   24 1
    38   24   25 2
    39   24   26 1
    40   24   27 1
    41   27   28 1
    42   28   29 2
    43   28   30 1
    44   28   31 1
    45   31   33 1
    46   32   33 1
    47   32   34 1
    48   32   35 1
    49   32   36 1
    50   33   60 1
    51   33   61 1
    52   34   62 1
    53   34   63 1
    54   34   64 1
    55   35   65 1
    56   35   66 1
    57   35   67 1
    58   36   37 1
    59   36   38 1
    60   36   68 1
    61   37   69 1
    62   38   39 2
    63   38   40 am
    64   40   41 1
    65   40   70 1
    66   41   42 1
    67   41   71 1
    68   41   72 1
    69   42   43 1
    70   42   73 1
    71   42   74 1
    72   43   44 2
    73   43   45 am
    74   45   46 1
    75   45   75 1
    76   46   47 1
    77   46   76 1
    78   46   77 1
    79   47   48 1
    80   47   78 1
    81   47   79 1
    82   48   80 1
@<TRIPOS>SUBSTRUCTURE
     1 COA         1 GROUP   0 A     ****
@<TRIPOS>MOLECULE
[5-(6-aminopurin-9-yl)-2-[[[[3-hydroxy-2,2-dimethyl-4-oxo-4-[[3-oxo-3-(2-sulfidoethylamino)propyl]amino]butoxy]-oxido-phosphoryl]oxy-oxido-phosphoryl]oxymethyl]-4-oxido-tetrahydrofuran-3-yl] phosphate
   78    80     1     0     0
SMALL
USER_CHARGES

@<TRIPOS>ATOM
      1 N1A        88.6040  -84.6940  -15.4010 N.ar      1 COA        -0.7810
      2 C2A        88.5170  -85.3620  -16.6140 C.ar      1 COA         0.3823
      3 N3A        88.4530  -84.8110  -17.8270 N.ar      1 COA        -0.5895
      4 C4A        88.4890  -83.4640  -17.7910 C.ar      1 COA         0.3775
      5 C5A        88.5780  -82.6230  -16.6440 C.ar      1 COA        -0.2339
      6 C6A        88.6370  -83.3150  -15.3450 C.ar      1 COA         0.5327
      7 N6A        88.7190  -82.6940  -14.2090 N.pl3     1 COA        -0.8919
      8 N7A        88.5930  -81.3110  -16.9840 N.ar      1 COA        -0.5843
      9 C8A        88.5140  -81.2930  -18.3130 C.ar      1 COA         0.2503
     10 N9A        88.4440  -82.5690  -18.8600 N.pl3     1 COA        -0.4028
     11 C1B        88.2830  -82.8930  -20.3050 C.3       1 COA         0.1179
     12 C2B        89.1690  -84.0030  -20.8100 C.3       1 COA         0.3758
     13 O2B        90.4930  -83.5370  -21.0680 O.3       1 COA        -0.5188
     14 C3B        88.4470  -84.3520  -22.1030 C.3       1 COA         0.1560
     15 O3B        88.5340  -83.3380  -23.0200 O.3       1 COA        -0.5459
     16 P3B        88.5670  -83.7630  -24.6320 P.3       1 COA         1.3130
     17 O7A        89.7760  -84.7730  -24.8120 O.2       1 COA        -0.9345
     18 O8A        88.8680  -82.4540  -25.4620 O.3       1 COA        -0.9345
     19 O9A        87.1870  -84.4450  -25.0050 O.3       1 COA        -0.9345
     20 C4B        86.9970  -84.4910  -21.5560 C.3       1 COA         0.0974
     21 O4B        86.9570  -83.4610  -20.4760 O.3       1 COA        -0.3460
     22 C5B        86.5780  -85.7930  -20.9340 C.3       1 COA         0.1867
     23 O5B        86.6630  -86.7650  -22.0150 O.3       1 COA        -0.5911
     24 P1A        85.5120  -87.8990  -22.1320 P.3       1 COA         1.5967
     25 O1A        85.9730  -88.8420  -23.2310 O.2       1 COA        -0.8967
     26 O2A        84.1350  -87.3250  -22.2760 O.3       1 COA        -0.8967
     27 O3A        85.5440  -88.6720  -20.8060 O.3       1 COA        -0.8155
     28 P2A        86.5260  -89.8380  -20.2320 P.3       1 COA         1.5911
     29 O4A        85.9410  -91.2220  -20.3870 O.2       1 COA        -0.8775
     30 O5A        87.9130  -89.7660  -20.8150 O.3       1 COA        -0.8775
     31 O6A        86.6310  -89.4110  -18.6740 O.3       1 COA        -0.5664
     32 CBP        85.9600  -88.6360  -16.5360 C.3       1 COA        -0.0672
     33 CCP        85.5210  -89.4080  -17.8120 C.3       1 COA         0.2186
     34 CDP        87.4920  -88.7900  -16.2100 C.3       1 COA        -0.0874
     35 CEP        85.6020  -87.2100  -16.9500 C.3       1 COA        -0.0874
     36 CAP        85.1850  -89.1370  -15.2540 C.3       1 COA         0.0870
     37 OAP        85.5020  -88.2660  -14.1280 O.3       1 COA        -0.5517
     38 C9P        83.6680  -89.1660  -15.4160 C.2       1 COA         0.6151
     39 O9P        83.0890  -90.0690  -16.2240 O.2       1 COA        -0.6344
     40 N8P        82.9960  -88.2770  -14.7190 N.am      1 COA        -0.5656
     41 C7P        81.5360  -88.1930  -14.7460 C.3       1 COA         0.0950
     42 C6P        81.0500  -88.2840  -13.2980 C.3       1 COA        -0.1945
     43 C5P        81.4830  -89.5720  -12.6330 C.2       1 COA         0.6582
     44 O5P        81.5080  -90.7220  -13.2480 O.2       1 COA        -0.6658
     45 N4P        81.8280  -89.4210  -11.3700 N.am      1 COA        -0.5622
     46 C3P        82.3050  -90.5540  -10.4610 C.3       1 COA         0.0820
     47 C2P        81.0660  -91.3020  -10.0080 C.3       1 COA         0.0676
     48 S1P        81.4370  -92.6410   -8.8190 S.3       1 COA        -1.0090
     49 H2A        88.4990  -86.4230  -16.5720 H         1 COA        -0.0224
     50 H61A       88.7598  -83.2668  -13.2708 H         1 COA         0.3253
     51 H62A       88.7477  -81.5947  -14.1840 H         1 COA         0.3253
     52 H8A        88.5050  -80.4030  -18.8910 H         1 COA         0.0875
     53 H1B        88.4770  -81.9515  -20.8397 H         1 COA         0.1790
     54 H2B        89.3598  -84.8274  -20.1072 H         1 COA        -0.0119
     55 H3B        88.8713  -85.1623  -22.7140 H         1 COA         0.1031
     56 H4B        86.2834  -84.3952  -22.3877 H         1 COA         0.1102
     57 H51A       87.2605  -86.0410  -20.1077 H         1 COA         0.0189
     58 H52A       85.5523  -85.7014  -20.5474 H         1 COA         0.0189
     59 H121       84.6753  -88.9064  -18.3050 H         1 COA         0.0264
     60 H122       85.2421  -90.4441  -17.5697 H         1 COA         0.0264
     61 H131       88.0860  -88.4540  -17.0727 H         1 COA         0.0397
     62 H132       87.7175  -89.8456  -15.9983 H         1 COA         0.0397
     63 H133       87.7432  -88.1780  -15.3311 H         1 COA         0.0397
     64 H141       86.1780  -86.9326  -17.8451 H         1 COA         0.0397
     65 H142       85.8437  -86.5184  -16.1295 H         1 COA         0.0397
     66 H143       84.5265  -87.1522  -17.1735 H         1 COA         0.0397
     67 H10        85.5087  -90.1600  -15.0118 H         1 COA         0.0481
     68 HO1        86.5501  -88.1036  -13.8363 H         1 COA         0.3665
     69 HN8        83.5757  -87.5785  -14.0977 H         1 COA         0.3134
     70 H71        81.2320  -87.2366  -15.1965 H         1 COA         0.0569
     71 H72        81.1319  -89.0242  -15.3425 H         1 COA         0.0569
     72 H61        81.4621  -87.4441  -12.7195 H         1 COA         0.0761
     73 H62        79.9511  -88.2397  -13.2766 H         1 COA         0.0761
     74 HN4        81.7547  -88.3956  -10.9785 H         1 COA         0.3017
     75 H31        82.9779  -91.2173  -11.0242 H         1 COA         0.0576
     76 H32        82.8431  -90.1313   -9.5998 H         1 COA         0.0576
     77 H21        80.3736  -90.6017   -9.5181 H         1 COA         0.0036
     78 H22        80.5724  -91.7559  -10.8800 H         1 COA         0.0036
@<TRIPOS>BOND
     1    1    2 ar
     2    1    6 ar
     3    2    3 ar
     4    2   49 1
     5    3    4 ar
     6    4    5 ar
     7    4   10 ar
     8    5    6 ar
     9    5    8 ar
    10    6    7 1
    11    7   50 1
    12    7   51 1
    13    8    9 ar
    14    9   10 ar
    15    9   52 1
    16   10   11 1
    17   11   12 1
    18   11   21 1
    19   11   53 1
    20   12   13 1
    21   12   14 1
    22   12   54 1
    23   14   15 1
    24   14   20 1
    25   14   55 1
    26   15   16 1
    27   16   17 2
    28   16   18 1
    29   16   19 1
    30   20   21 1
    31   20   22 1
    32   20   56 1
    33   22   23 1
    34   22   57 1
    35   22   58 1
    36   23   24 1
    37   24   25 2
    38   24   26 1
    39   24   27 1
    40   27   28 1
    41   28   29 2
    42   28   30 1
    43   28   31 1
    44   31   33 1
    45   32   33 1
    46   32   34 1
    47   32   35 1
    48   32   36 1
    49   33   59 1
    50   33   60 1
    51   34   61 1
    52   34   62 1
    53   34   63 1
    54   35   64 1
    55   35   65 1
    56   35   66 1
    57   36   37 1
    58   36   38 1
    59   36   67 1
    60   37   68 1
    61   38   39 2
    62   38   40 am
    63   40   41 1
    64   40   69 1
    65   41   42 1
    66   41   70 1
    67   41   71 1
    68   42   43 1
    69   42   72 1
    70   42   73 1
    71   43   44 2
    72   43   45 am
    73   45   46 1
    74   45   74 1
    75   46   47 1
    76   46   75 1
    77   46   76 1
    78   47   48 1
    79   47   77 1
    80   47   78 1
@<TRIPOS>SUBSTRUCTURE
     1 COA         1 GROUP   0 A     ****
@<TRIPOS>MOLECULE
[5-(6-aminopurin-9-yl)-2-[[[[3-hydroxy-2,2-dimethyl-4-oxo-4-[[3-oxo-3-(2-sulfanylethylamino)propyl]amino]butoxy]-oxido-phosphoryl]oxy-oxido-phosphoryl]oxymethyl]-4-oxido-tetrahydrofuran-3-yl] phosphate
   79    81     1     0     0
SMALL
USER_CHARGES

@<TRIPOS>ATOM
      1 N1A        88.6040  -84.6940  -15.4010 N.ar      1 COA        -0.5260
      2 C2A        88.5170  -85.3620  -16.6140 C.ar      1 COA         0.6629
      3 N3A        88.4530  -84.8110  -17.8270 N.ar      1 COA        -0.5260
      4 C4A        88.4890  -83.4640  -17.7910 C.ar      1 COA         0.5212
      5 C5A        88.5780  -82.6230  -16.6440 C.ar      1 COA         0.0088
      6 C6A        88.6370  -83.3150  -15.3450 C.ar      1 COA         0.5212
      7 N6A        88.7190  -82.6940  -14.2090 N.pl3     1 COA        -0.6025
      8 N7A        88.5930  -81.3110  -16.9840 N.ar      1 COA        -0.4271
      9 C8A        88.5140  -81.2930  -18.3130 C.ar      1 COA         0.5691
     10 N9A        88.4440  -82.5690  -18.8600 N.pl3     1 COA        -0.5033
     11 C1B        88.2830  -82.8930  -20.3050 C.3       1 COA         0.2693
     12 C2B        89.1690  -84.0030  -20.8100 C.3       1 COA         0.2008
     13 O2B        90.4930  -83.5370  -21.0680 O.3       1 COA        -0.1615
     14 C3B        88.4470  -84.3520  -22.1030 C.3       1 COA         0.1111
     15 O3B        88.5340  -83.3380  -23.0200 O.3       1 COA         0.1618
     16 P3B        88.5670  -83.7630  -24.6320 P.3       1 COA        -1.1921
     17 O7A        89.7760  -84.7730  -24.8120 O.2       1 COA         0.3195
     18 O8A        88.8680  -82.4540  -25.4620 O.3       1 COA         0.3195
     19 O9A        87.1870  -84.4450  -25.0050 O.3       1 COA         0.3195
     20 C4B        86.9970  -84.4910  -21.5560 C.3       1 COA         0.1111
     21 O4B        86.9570  -83.4610  -20.4760 O.3       1 COA        -0.1436
     22 C5B        86.5780  -85.7930  -20.9340 C.3       1 COA         0.1504
     23 O5B        86.6630  -86.7650  -22.0150 O.3       1 COA         0.1618
     24 P1A        85.5120  -87.8990  -22.1320 P.3       1 COA        -1.1062
     25 O1A        85.9730  -88.8420  -23.2310 O.2       1 COA         0.3195
     26 O2A        84.1350  -87.3250  -22.2760 O.3       1 COA         0.3195
     27 O3A        85.5440  -88.6720  -20.8060 O.3       1 COA         0.4672
     28 P2A        86.5260  -89.8380  -20.2320 P.3       1 COA        -1.1062
     29 O4A        85.9410  -91.2220  -20.3870 O.2       1 COA         0.3195
     30 O5A        87.9130  -89.7660  -20.8150 O.3       1 COA         0.3195
     31 O6A        86.6310  -89.4110  -18.6740 O.3       1 COA         0.1618
     32 CBP        85.9600  -88.6360  -16.5360 C.3       1 COA         0.0000
     33 CCP        85.5210  -89.4080  -17.8120 C.3       1 COA         0.1504
     34 CDP        87.4920  -88.7900  -16.2100 C.3       1 COA         0.1179
     35 CEP        85.6020  -87.2100  -16.9500 C.3       1 COA         0.1179
     36 CAP        85.1850  -89.1370  -15.2540 C.3       1 COA         0.0611
     37 OAP        85.5020  -88.2660  -14.1280 O.3       1 COA        -0.2728
     38 C9P        83.6680  -89.1660  -15.4160 C.2       1 COA         0.3561
     39 O9P        83.0890  -90.0690  -16.2240 O.2       1 COA        -0.2391
     40 N8P        82.9960  -88.2770  -14.7190 N.am      1 COA        -0.1909
     41 C7P        81.5360  -88.1930  -14.7460 C.3       1 COA         0.1160
     42 C6P        81.0500  -88.2840  -13.2980 C.3       1 COA         0.0286
     43 C5P        81.4830  -89.5720  -12.6330 C.2       1 COA         0.3561
     44 O5P        81.5080  -90.7220  -13.2480 O.2       1 COA        -0.2391
     45 N4P        81.8280  -89.4210  -11.3700 N.am      1 COA        -0.1909
     46 C3P        82.3050  -90.5540  -10.4610 C.3       1 COA         0.1160
     47 C2P        81.0660  -91.3020  -10.0080 C.3       1 COA         0.2607
     48 S1P        81.4370  -92.6410   -8.8190 S.3       1 COA        -0.3539
     49 H2A        88.4990  -86.4230  -16.5720 H         1 COA        -0.1369
     50 H61A       88.7598  -83.2668  -13.2708 H         1 COA         0.2048
     51 H62A       88.7477  -81.5947  -14.1840 H         1 COA         0.2048
     52 H8A        88.5050  -80.4030  -18.8910 H         1 COA        -0.1292
     53 H1B        88.4770  -81.9515  -20.8397 H         1 COA        -0.0393
     54 H2B        89.3598  -84.8274  -20.1072 H         1 COA        -0.0393
     55 H3B        88.8713  -85.1623  -22.7140 H         1 COA        -0.0393
     56 H4B        86.2834  -84.3952  -22.3877 H         1 COA        -0.0393
     57 H51A       87.2605  -86.0410  -20.1077 H         1 COA        -0.0393
     58 H52A       85.5523  -85.7014  -20.5474 H         1 COA        -0.0393
     59 H121       84.6753  -88.9064  -18.3050 H         1 COA        -0.0393
     60 H122       85.2421  -90.4441  -17.5697 H         1 COA        -0.0393
     61 H131       88.0860  -88.4540  -17.0727 H         1 COA        -0.0393
     62 H132       87.7175  -89.8456  -15.9983 H         1 COA        -0.0393
     63 H133       87.7432  -88.1780  -15.3311 H         1 COA        -0.0393
     64 H141       86.1780  -86.9326  -17.8451 H         1 COA        -0.0393
     65 H142       85.8437  -86.5184  -16.1295 H         1 COA        -0.0393
     66 H143       84.5265  -87.1522  -17.1735 H         1 COA        -0.0393
     67 H10        85.5087  -90.1600  -15.0118 H         1 COA        -0.0393
     68 HO1        86.5501  -88.1036  -13.8363 H         1 COA         0.2010
     69 HN8        83.5757  -87.5785  -14.0977 H         1 COA         0.0865
     70 H71        81.2320  -87.2366  -15.1965 H         1 COA        -0.0393
     71 H72        81.1319  -89.0242  -15.3425 H         1 COA        -0.0393
     72 H61        81.4621  -87.4441  -12.7195 H         1 COA        -0.0393
     73 H62        79.9511  -88.2397  -13.2766 H         1 COA        -0.0393
     74 HN4        81.7547  -88.3956  -10.9785 H         1 COA         0.0865
     75 H31        82.9779  -91.2173  -11.0242 H         1 COA        -0.0393
     76 H32        82.8431  -90.1313   -9.5998 H         1 COA        -0.0393
     77 H21        80.3736  -90.6017   -9.5181 H         1 COA        -0.0393
     78 H22        80.5724  -91.7559  -10.8800 H         1 COA        -0.0393
     79 HS1        80.6217  -93.2588   -8.4145 H         1 COA         0.1718
@<TRIPOS>BOND
     1    1    2 ar
     2    1    6 ar
     3    2    3 ar
     4    2   49 1
     5    3    4 ar
     6    4    5 ar
     7    4   10 ar
     8    5    6 ar
     9    5    8 ar
    10    6    7 1
    11    7   50 1
    12    7   51 1
    13    8    9 ar
    14    9   10 ar
    15    9   52 1
    16   10   11 1
    17   11   12 1
    18   11   21 1
    19   11   53 1
    20   12   13 1
    21   12   14 1
    22   12   54 1
    23   14   15 1
    24   14   20 1
    25   14   55 1
    26   15   16 1
    27   16   17 2
    28   16   18 1
    29   16   19 1
    30   20   21 1
    31   20   22 1
    32   20   56 1
    33   22   23 1
    34   22   57 1
    35   22   58 1
    36   23   24 1
    37   24   25 2
    38   24   26 1
    39   24   27 1
    40   27   28 1
    41   28   29 2
    42   28   30 1
    43   28   31 1
    44   31   33 1
    45   32   33 1
    46   32   34 1
    47   32   35 1
    48   32   36 1
    49   33   59 1
    50   33   60 1
    51   34   61 1
    52   34   62 1
    53   34   63 1
    54   35   64 1
    55   35   65 1
    56   35   66 1
    57   36   37 1
    58   36   38 1
    59   36   67 1
    60   37   68 1
    61   38   39 2
    62   38   40 am
    63   40   41 1
    64   40   69 1
    65   41   42 1
    66   41   70 1
    67   41   71 1
    68   42   43 1
    69   42   72 1
    70   42   73 1
    71   43   44 2
    72   43   45 am
    73   45   46 1
    74   45   74 1
    75   46   47 1
    76   46   75 1
    77   46   76 1
    78   47   48 1
    79   47   77 1
    80   47   78 1
    81   48   79 1
@<TRIPOS>SUBSTRUCTURE
     1 COA         1 GROUP   0 A     ****
@<TRIPOS>MOLECULE
[5-(6-aminopurin-9-yl)-2-[[[[2,2-dimethyl-3-oxido-4-oxo-4-[[3-oxo-3-(2-sulfidoethylamino)propyl]amino]butoxy]-oxido-phosphoryl]oxy-oxido-phosphoryl]oxymethyl]-4-hydroxy-tetrahydrofuran-3-yl] phosphate
   78    80     1     0     0
SMALL
USER_CHARGES

@<TRIPOS>ATOM
      1 N1A        88.6040  -84.6940  -15.4010 N.ar      1 COA        -0.8286
      2 C2A        88.5170  -85.3620  -16.6140 C.ar      1 COA         0.6043
      3 N3A        88.4530  -84.8110  -17.8270 N.ar      1 COA        -0.6548
      4 C4A        88.4890  -83.4640  -17.7910 C.ar      1 COA         0.5536
      5 C5A        88.5780  -82.6230  -16.6440 C.ar      1 COA        -0.1873
      6 C6A        88.6370  -83.3150  -15.3450 C.ar      1 COA         0.6392
      7 N6A        88.7190  -82.6940  -14.2090 N.pl3     1 COA        -0.9141
      8 N7A        88.5930  -81.3110  -16.9840 N.ar      1 COA        -0.6337
      9 C8A        88.5140  -81.2930  -18.3130 C.ar      1 COA         0.5976
     10 N9A        88.4440  -82.5690  -18.8600 N.pl3     1 COA        -0.6242
     11 C1B        88.2830  -82.8930  -20.3050 C.3       1 COA         0.3838
     12 C2B        89.1690  -84.0030  -20.8100 C.3       1 COA         0.0769
     13 O2B        90.4930  -83.5370  -21.0680 O.3       1 COA        -0.6394
     14 C3B        88.4470  -84.3520  -22.1030 C.3       1 COA         0.2168
     15 O3B        88.5340  -83.3380  -23.0200 O.3       1 COA        -0.5659
     16 P3B        88.5670  -83.7630  -24.6320 P.3       1 COA         1.3092
     17 O7A        89.7760  -84.7730  -24.8120 O.2       1 COA        -0.9238
     18 O8A        88.8680  -82.4540  -25.4620 O.3       1 COA        -0.9238
     19 O9A        87.1870  -84.4450  -25.0050 O.3       1 COA        -0.9238
     20 C4B        86.9970  -84.4910  -21.5560 C.3       1 COA         0.0950
     21 O4B        86.9570  -83.4610  -20.4760 O.3       1 COA        -0.4310
     22 C5B        86.5780  -85.7930  -20.9340 C.3       1 COA         0.1690
     23 O5B        86.6630  -86.7650  -22.0150 O.3       1 COA        -0.5830
     24 P1A        85.5120  -87.8990  -22.1320 P.3       1 COA         1.6032
     25 O1A        85.9730  -88.8420  -23.2310 O.2       1 COA        -0.9113
     26 O2A        84.1350  -87.3250  -22.2760 O.3       1 COA        -0.9113
     27 O3A        85.5440  -88.6720  -20.8060 O.3       1 COA        -0.8188
     28 P2A        86.5260  -89.8380  -20.2320 P.3       1 COA         1.6045
     29 O4A        85.9410  -91.2220  -20.3870 O.2       1 COA        -0.9017
     30 O5A        87.9130  -89.7660  -20.8150 O.3       1 COA        -0.9017
     31 O6A        86.6310  -89.4110  -18.6740 O.3       1 COA        -0.6052
     32 CBP        85.9600  -88.6360  -16.5360 C.3       1 COA        -0.0969
     33 CCP        85.5210  -89.4080  -17.8120 C.3       1 COA         0.2153
     34 CDP        87.4920  -88.7900  -16.2100 C.3       1 COA        -0.0628
     35 CEP        85.6020  -87.2100  -16.9500 C.3       1 COA        -0.0628
     36 CAP        85.1850  -89.1370  -15.2540 C.3       1 COA         0.3775
     37 OAP        85.5020  -88.2660  -14.1280 O.3       1 COA        -0.8883
     38 C9P        83.6680  -89.1660  -15.4160 C.2       1 COA         0.5767
     39 O9P        83.0890  -90.0690  -16.2240 O.2       1 COA        -0.6897
     40 N8P        82.9960  -88.2770  -14.7190 N.am      1 COA        -0.5748
     41 C7P        81.5360  -88.1930  -14.7460 C.3       1 COA         0.1012
     42 C6P        81.0500  -88.2840  -13.2980 C.3       1 COA        -0.1941
     43 C5P        81.4830  -89.5720  -12.6330 C.2       1 COA         0.6493
     44 O5P        81.5080  -90.7220  -13.2480 O.2       1 COA        -0.6468
     45 N4P        81.8280  -89.4210  -11.3700 N.am      1 COA        -0.5761
     46 C3P        82.3050  -90.5540  -10.4610 C.3       1 COA         0.0794
     47 C2P        81.0660  -91.3020  -10.0080 C.3       1 COA         0.0690
     48 S1P        81.4370  -92.6410   -8.8190 S.3       1 COA        -1.0416
     49 H2A        88.4990  -86.4230  -16.5720 H         1 COA         0.0137
     50 H61A       88.7598  -83.2668  -13.2708 H         1 COA         0.3737
     51 H62A       88.7477  -81.5947  -14.1840 H         1 COA         0.3737
     52 H8A        88.5050  -80.4030  -18.8910 H         1 COA         0.1532
     53 H1B        88.4770  -81.9515  -20.8397 H         1 COA         0.0904
     54 H2B        89.3598  -84.8274  -20.1072 H         1 COA         0.0559
     55 HO2A       91.1454  -83.2437  -20.2324 H         1 COA         0.4481
     56 H3B        88.8713  -85.1623  -22.7140 H         1 COA         0.0781
     57 H4B        86.2834  -84.3952  -22.3877 H         1 COA         0.1370
     58 H51A       87.2605  -86.0410  -20.1077 H         1 COA         0.0353
     59 H52A       85.5523  -85.7014  -20.5474 H         1 COA         0.0353
     60 H121       84.6753  -88.9064  -18.3050 H         1 COA         0.0153
     61 H122       85.2421  -90.4441  -17.5697 H         1 COA         0.0153
     62 H131       88.0860  -88.4540  -17.0727 H         1 COA         0.0225
     63 H132       87.7175  -89.8456  -15.9983 H         1 COA         0.0225
     64 H133       87.7432  -88.1780  -15.3311 H         1 COA         0.0225
     65 H141       86.1780  -86.9326  -17.8451 H         1 COA         0.0225
     66 H142       85.8437  -86.5184  -16.1295 H         1 COA         0.0225
     67 H143       84.5265  -87.1522  -17.1735 H         1 COA         0.0225
     68 H10        85.5087  -90.1600  -15.0118 H         1 COA        -0.0496
     69 HN8        83.5757  -87.5785  -14.0977 H         1 COA         0.2839
     70 H71        81.2320  -87.2366  -15.1965 H         1 COA         0.0347
     71 H72        81.1319  -89.0242  -15.3425 H         1 COA         0.0347
     72 H61        81.4621  -87.4441  -12.7195 H         1 COA         0.0667
     73 H62        79.9511  -88.2397  -13.2766 H         1 COA         0.0667
     74 HN4        81.7547  -88.3956  -10.9785 H         1 COA         0.2855
     75 H31        82.9779  -91.2173  -11.0242 H         1 COA         0.0469
     76 H32        82.8431  -90.1313   -9.5998 H         1 COA         0.0469
     77 H21        80.3736  -90.6017   -9.5181 H         1 COA         0.0097
     78 H22        80.5724  -91.7559  -10.8800 H         1 COA         0.0097
@<TRIPOS>BOND
     1    1    2 ar
     2    1    6 ar
     3    2    3 ar
     4    2   49 1
     5    3    4 ar
     6    4    5 ar
     7    4   10 ar
     8    5    6 ar
     9    5    8 ar
    10    6    7 1
    11    7   50 1
    12    7   51 1
    13    8    9 ar
    14    9   10 ar
    15    9   52 1
    16   10   11 1
    17   11   12 1
    18   11   21 1
    19   11   53 1
    20   12   13 1
    21   12   14 1
    22   12   54 1
    23   13   55 1
    24   14   15 1
    25   14   20 1
    26   14   56 1
    27   15   16 1
    28   16   17 2
    29   16   18 1
    30   16   19 1
    31   20   21 1
    32   20   22 1
    33   20   57 1
    34   22   23 1
    35   22   58 1
    36   22   59 1
    37   23   24 1
    38   24   25 2
    39   24   26 1
    40   24   27 1
    41   27   28 1
    42   28   29 2
    43   28   30 1
    44   28   31 1
    45   31   33 1
    46   32   33 1
    47   32   34 1
    48   32   35 1
    49   32   36 1
    50   33   60 1
    51   33   61 1
    52   34   62 1
    53   34   63 1
    54   34   64 1
    55   35   65 1
    56   35   66 1
    57   35   67 1
    58   36   37 1
    59   36   38 1
    60   36   68 1
    61   38   39 2
    62   38   40 am
    63   40   41 1
    64   40   69 1
    65   41   42 1
    66   41   70 1
    67   41   71 1
    68   42   43 1
    69   42   72 1
    70   42   73 1
    71   43   44 2
    72   43   45 am
    73   45   46 1
    74   45   74 1
    75   46   47 1
    76   46   75 1
    77   46   76 1
    78   47   48 1
    79   47   77 1
    80   47   78 1
@<TRIPOS>SUBSTRUCTURE
     1 COA         1 GROUP   0 A     ****
@<TRIPOS>MOLECULE
[5-(6-azanidylpurin-9-yl)-4-hydroxy-2-[[[[3-hydroxy-2,2-dimethyl-4-oxo-4-[[3-oxo-3-(2-sulfidoethylamino)propyl]amino]butoxy]-oxido-phosphoryl]oxy-oxido-phosphoryl]oxymethyl]tetrahydrofuran-3-yl] phosphate
   78    80     1     0     0
SMALL
USER_CHARGES

@<TRIPOS>ATOM
      1 N1A        88.6040  -84.6940  -15.4010 N.ar      1 COA        -0.9816
      2 C2A        88.5170  -85.3620  -16.6140 C.ar      1 COA         0.6546
      3 N3A        88.4530  -84.8110  -17.8270 N.ar      1 COA        -0.8035
      4 C4A        88.4890  -83.4640  -17.7910 C.ar      1 COA         0.5518
      5 C5A        88.5780  -82.6230  -16.6440 C.ar      1 COA        -0.2288
      6 C6A        88.6370  -83.3150  -15.3450 C.ar      1 COA         0.6901
      7 N6A        88.7190  -82.6940  -14.2090 N.2       1 COA        -0.8439
      8 N7A        88.5930  -81.3110  -16.9840 N.ar      1 COA        -0.5820
      9 C8A        88.5140  -81.2930  -18.3130 C.ar      1 COA         0.4753
     10 N9A        88.4440  -82.5690  -18.8600 N.pl3     1 COA        -0.6526
     11 C1B        88.2830  -82.8930  -20.3050 C.3       1 COA         0.3940
     12 C2B        89.1690  -84.0030  -20.8100 C.3       1 COA         0.0856
     13 O2B        90.4930  -83.5370  -21.0680 O.3       1 COA        -0.6264
     14 C3B        88.4470  -84.3520  -22.1030 C.3       1 COA         0.2007
     15 O3B        88.5340  -83.3380  -23.0200 O.3       1 COA        -0.5633
     16 P3B        88.5670  -83.7630  -24.6320 P.3       1 COA         1.3138
     17 O7A        89.7760  -84.7730  -24.8120 O.2       1 COA        -0.9361
     18 O8A        88.8680  -82.4540  -25.4620 O.3       1 COA        -0.9361
     19 O9A        87.1870  -84.4450  -25.0050 O.3       1 COA        -0.9361
     20 C4B        86.9970  -84.4910  -21.5560 C.3       1 COA         0.0990
     21 O4B        86.9570  -83.4610  -20.4760 O.3       1 COA        -0.4245
     22 C5B        86.5780  -85.7930  -20.9340 C.3       1 COA         0.1713
     23 O5B        86.6630  -86.7650  -22.0150 O.3       1 COA        -0.5832
     24 P1A        85.5120  -87.8990  -22.1320 P.3       1 COA         1.5863
     25 O1A        85.9730  -88.8420  -23.2310 O.2       1 COA        -0.8920
     26 O2A        84.1350  -87.3250  -22.2760 O.3       1 COA        -0.8920
     27 O3A        85.5440  -88.6720  -20.8060 O.3       1 COA        -0.8156
     28 P2A        86.5260  -89.8380  -20.2320 P.3       1 COA         1.5926
     29 O4A        85.9410  -91.2220  -20.3870 O.2       1 COA        -0.8783
     30 O5A        87.9130  -89.7660  -20.8150 O.3       1 COA        -0.8783
     31 O6A        86.6310  -89.4110  -18.6740 O.3       1 COA        -0.5720
     32 CBP        85.9600  -88.6360  -16.5360 C.3       1 COA        -0.0983
     33 CCP        85.5210  -89.4080  -17.8120 C.3       1 COA         0.2345
     34 CDP        87.4920  -88.7900  -16.2100 C.3       1 COA        -0.0802
     35 CEP        85.6020  -87.2100  -16.9500 C.3       1 COA        -0.0802
     36 CAP        85.1850  -89.1370  -15.2540 C.3       1 COA         0.1012
     37 OAP        85.5020  -88.2660  -14.1280 O.3       1 COA        -0.6157
     38 C9P        83.6680  -89.1660  -15.4160 C.2       1 COA         0.6380
     39 O9P        83.0890  -90.0690  -16.2240 O.2       1 COA        -0.6043
     40 N8P        82.9960  -88.2770  -14.7190 N.am      1 COA        -0.5927
     41 C7P        81.5360  -88.1930  -14.7460 C.3       1 COA         0.1113
     42 C6P        81.0500  -88.2840  -13.2980 C.3       1 COA        -0.1804
     43 C5P        81.4830  -89.5720  -12.6330 C.2       1 COA         0.6488
     44 O5P        81.5080  -90.7220  -13.2480 O.2       1 COA        -0.6257
     45 N4P        81.8280  -89.4210  -11.3700 N.am      1 COA        -0.5706
     46 C3P        82.3050  -90.5540  -10.4610 C.3       1 COA         0.0812
     47 C2P        81.0660  -91.3020  -10.0080 C.3       1 COA         0.0663
     48 S1P        81.4370  -92.6410   -8.8190 S.3       1 COA        -1.0075
     49 H2A        88.4990  -86.4230  -16.5720 H         1 COA        -0.0441
     50 H62A       88.7598  -83.2668  -13.2708 H         1 COA         0.2514
     51 H8A        88.5050  -80.4030  -18.8910 H         1 COA         0.0913
     52 H1B        88.4770  -81.9515  -20.8397 H         1 COA         0.0940
     53 H2B        89.3598  -84.8274  -20.1072 H         1 COA         0.0428
     54 HO2A       91.1454  -83.2437  -20.2324 H         1 COA         0.4423
     55 H3B        88.8713  -85.1623  -22.7140 H         1 COA         0.0686
     56 H4B        86.2834  -84.3952  -22.3877 H         1 COA         0.1063
     57 H51A       87.2605  -86.0410  -20.1077 H         1 COA         0.0221
     58 H52A       85.5523  -85.7014  -20.5474 H         1 COA         0.0221
     59 H121       84.6753  -88.9064  -18.3050 H         1 COA         0.0155
     60 H122       85.2421  -90.4441  -17.5697 H         1 COA         0.0155
     61 H131       88.0860  -88.4540  -17.0727 H         1 COA         0.0372
     62 H132       87.7175  -89.8456  -15.9983 H         1 COA         0.0372
     63 H133       87.7432  -88.1780  -15.3311 H         1 COA         0.0372
     64 H141       86.1780  -86.9326  -17.8451 H         1 COA         0.0372
     65 H142       85.8437  -86.5184  -16.1295 H         1 COA         0.0372
     66 H143       84.5265  -87.1522  -17.1735 H         1 COA         0.0372
     67 H10        85.5087  -90.1600  -15.0118 H         1 COA         0.0424
     68 HO1        86.5501  -88.1036  -13.8363 H         1 COA         0.4386
     69 HN8        83.5757  -87.5785  -14.0977 H         1 COA         0.3060
     70 H71        81.2320  -87.2366  -15.1965 H         1 COA         0.0651
     71 H72        81.1319  -89.0242  -15.3425 H         1 COA         0.0651
     72 H61        81.4621  -87.4441  -12.7195 H         1 COA         0.0594
     73 H62        79.9511  -88.2397  -13.2766 H         1 COA         0.0594
     74 HN4        81.7547  -88.3956  -10.9785 H         1 COA         0.2825
     75 H31        82.9779  -91.2173  -11.0242 H         1 COA         0.0588
     76 H32        82.8431  -90.1313   -9.5998 H         1 COA         0.0588
     77 H21        80.3736  -90.6017   -9.5181 H         1 COA        -0.0006
     78 H22        80.5724  -91.7559  -10.8800 H         1 COA        -0.0006
@<TRIPOS>BOND
     1    1    2 ar
     2    1    6 ar
     3    2    3 ar
     4    2   49 1
     5    3    4 ar
     6    4    5 ar
     7    4   10 ar
     8    5    6 ar
     9    5    8 ar
    10    6    7 1
    11    7   50 1
    12    8    9 ar
    13    9   10 ar
    14    9   51 1
    15   10   11 1
    16   11   12 1
    17   11   21 1
    18   11   52 1
    19   12   13 1
    20   12   14 1
    21   12   53 1
    22   13   54 1
    23   14   15 1
    24   14   20 1
    25   14   55 1
    26   15   16 1
    27   16   17 2
    28   16   18 1
    29   16   19 1
    30   20   21 1
    31   20   22 1
    32   20   56 1
    33   22   23 1
    34   22   57 1
    35   22   58 1
    36   23   24 1
    37   24   25 2
    38   24   26 1
    39   24   27 1
    40   27   28 1
    41   28   29 2
    42   28   30 1
    43   28   31 1
    44   31   33 1
    45   32   33 1
    46   32   34 1
    47   32   35 1
    48   32   36 1
    49   33   59 1
    50   33   60 1
    51   34   61 1
    52   34   62 1
    53   34   63 1
    54   35   64 1
    55   35   65 1
    56   35   66 1
    57   36   37 1
    58   36   38 1
    59   36   67 1
    60   37   68 1
    61   38   39 2
    62   38   40 am
    63   40   41 1
    64   40   69 1
    65   41   42 1
    66   41   70 1
    67   41   71 1
    68   42   43 1
    69   42   72 1
    70   42   73 1
    71   43   44 2
    72   43   45 am
    73   45   46 1
    74   45   74 1
    75   46   47 1
    76   46   75 1
    77   46   76 1
    78   47   48 1
    79   47   77 1
    80   47   78 1
@<TRIPOS>SUBSTRUCTURE
     1 COA         1 GROUP   0 A     ****
@<TRIPOS>MOLECULE
[5-(6-aminopurin-9-yl)-2-[[[[2,2-dimethyl-3-oxido-4-oxo-4-[[3-oxo-3-(2-sulfanylethylamino)propyl]amino]butoxy]-oxido-phosphoryl]oxy-oxido-phosphoryl]oxymethyl]-4-hydroxy-tetrahydrofuran-3-yl] phosphate
   79    81     1     0     0
SMALL
USER_CHARGES

@<TRIPOS>ATOM
      1 N1A        88.6040  -84.6940  -15.4010 N.ar      1 COA        -0.8254
      2 C2A        88.5170  -85.3620  -16.6140 C.ar      1 COA         0.6067
      3 N3A        88.4530  -84.8110  -17.8270 N.ar      1 COA        -0.6568
      4 C4A        88.4890  -83.4640  -17.7910 C.ar      1 COA         0.5561
      5 C5A        88.5780  -82.6230  -16.6440 C.ar      1 COA        -0.1880
      6 C6A        88.6370  -83.3150  -15.3450 C.ar      1 COA         0.6440
      7 N6A        88.7190  -82.6940  -14.2090 N.pl3     1 COA        -0.9141
      8 N7A        88.5930  -81.3110  -16.9840 N.ar      1 COA        -0.6309
      9 C8A        88.5140  -81.2930  -18.3130 C.ar      1 COA         0.5955
     10 N9A        88.4440  -82.5690  -18.8600 N.pl3     1 COA        -0.6257
     11 C1B        88.2830  -82.8930  -20.3050 C.3       1 COA         0.3840
     12 C2B        89.1690  -84.0030  -20.8100 C.3       1 COA         0.0806
     13 O2B        90.4930  -83.5370  -21.0680 O.3       1 COA        -0.6384
     14 C3B        88.4470  -84.3520  -22.1030 C.3       1 COA         0.2078
     15 O3B        88.5340  -83.3380  -23.0200 O.3       1 COA        -0.5674
     16 P3B        88.5670  -83.7630  -24.6320 P.3       1 COA         1.3129
     17 O7A        89.7760  -84.7730  -24.8120 O.2       1 COA        -0.9276
     18 O8A        88.8680  -82.4540  -25.4620 O.3       1 COA        -0.9276
     19 O9A        87.1870  -84.4450  -25.0050 O.3       1 COA        -0.9276
     20 C4B        86.9970  -84.4910  -21.5560 C.3       1 COA         0.0996
     21 O4B        86.9570  -83.4610  -20.4760 O.3       1 COA        -0.4344
     22 C5B        86.5780  -85.7930  -20.9340 C.3       1 COA         0.1623
     23 O5B        86.6630  -86.7650  -22.0150 O.3       1 COA        -0.5818
     24 P1A        85.5120  -87.8990  -22.1320 P.3       1 COA         1.5968
     25 O1A        85.9730  -88.8420  -23.2310 O.2       1 COA        -0.9056
     26 O2A        84.1350  -87.3250  -22.2760 O.3       1 COA        -0.9056
     27 O3A        85.5440  -88.6720  -20.8060 O.3       1 COA        -0.8164
     28 P2A        86.5260  -89.8380  -20.2320 P.3       1 COA         1.5975
     29 O4A        85.9410  -91.2220  -20.3870 O.2       1 COA        -0.8974
     30 O5A        87.9130  -89.7660  -20.8150 O.3       1 COA        -0.8974
     31 O6A        86.6310  -89.4110  -18.6740 O.3       1 COA        -0.5834
     32 CBP        85.9600  -88.6360  -16.5360 C.3       1 COA        -0.0988
     33 CCP        85.5210  -89.4080  -17.8120 C.3       1 COA         0.2005
     34 CDP        87.4920  -88.7900  -16.2100 C.3       1 COA        -0.0673
     35 CEP        85.6020  -87.2100  -16.9500 C.3       1 COA        -0.0673
     36 CAP        85.1850  -89.1370  -15.2540 C.3       1 COA         0.3819
     37 OAP        85.5020  -88.2660  -14.1280 O.3       1 COA        -0.8866
     38 C9P        83.6680  -89.1660  -15.4160 C.2       1 COA         0.6110
     39 O9P        83.0890  -90.0690  -16.2240 O.2       1 COA        -0.7082
     40 N8P        82.9960  -88.2770  -14.7190 N.am      1 COA        -0.6044
     41 C7P        81.5360  -88.1930  -14.7460 C.3       1 COA         0.1338
     42 C6P        81.0500  -88.2840  -13.2980 C.3       1 COA        -0.1959
     43 C5P        81.4830  -89.5720  -12.6330 C.2       1 COA         0.6736
     44 O5P        81.5080  -90.7220  -13.2480 O.2       1 COA        -0.6168
     45 N4P        81.8280  -89.4210  -11.3700 N.am      1 COA        -0.6109
     46 C3P        82.3050  -90.5540  -10.4610 C.3       1 COA         0.1083
     47 C2P        81.0660  -91.3020  -10.0080 C.3       1 COA        -0.0118
     48 S1P        81.4370  -92.6410   -8.8190 S.3       1 COA        -0.4306
     49 H2A        88.4990  -86.4230  -16.5720 H         1 COA         0.0154
     50 H61A       88.7598  -83.2668  -13.2708 H         1 COA         0.3757
     51 H62A       88.7477  -81.5947  -14.1840 H         1 COA         0.3757
     52 H8A        88.5050  -80.4030  -18.8910 H         1 COA         0.1512
     53 H1B        88.4770  -81.9515  -20.8397 H         1 COA         0.0950
     54 H2B        89.3598  -84.8274  -20.1072 H         1 COA         0.0581
     55 HO2A       91.1454  -83.2437  -20.2324 H         1 COA         0.4485
     56 H3B        88.8713  -85.1623  -22.7140 H         1 COA         0.0813
     57 H4B        86.2834  -84.3952  -22.3877 H         1 COA         0.1293
     58 H51A       87.2605  -86.0410  -20.1077 H         1 COA         0.0374
     59 H52A       85.5523  -85.7014  -20.5474 H         1 COA         0.0374
     60 H121       84.6753  -88.9064  -18.3050 H         1 COA         0.0120
     61 H122       85.2421  -90.4441  -17.5697 H         1 COA         0.0120
     62 H131       88.0860  -88.4540  -17.0727 H         1 COA         0.0238
     63 H132       87.7175  -89.8456  -15.9983 H         1 COA         0.0238
     64 H133       87.7432  -88.1780  -15.3311 H         1 COA         0.0238
     65 H141       86.1780  -86.9326  -17.8451 H         1 COA         0.0238
     66 H142       85.8437  -86.5184  -16.1295 H         1 COA         0.0238
     67 H143       84.5265  -87.1522  -17.1735 H         1 COA         0.0238
     68 H10        85.5087  -90.1600  -15.0118 H         1 COA        -0.0532
     69 HN8        83.5757  -87.5785  -14.0977 H         1 COA         0.3021
     70 H71        81.2320  -87.2366  -15.1965 H         1 COA         0.0365
     71 H72        81.1319  -89.0242  -15.3425 H         1 COA         0.0365
     72 H61        81.4621  -87.4441  -12.7195 H         1 COA         0.0773
     73 H62        79.9511  -88.2397  -13.2766 H         1 COA         0.0773
     74 HN4        81.7547  -88.3956  -10.9785 H         1 COA         0.3022
     75 H31        82.9779  -91.2173  -11.0242 H         1 COA         0.0472
     76 H32        82.8431  -90.1313   -9.5998 H         1 COA         0.0472
     77 H21        80.3736  -90.6017   -9.5181 H         1 COA         0.0794
     78 H22        80.5724  -91.7559  -10.8800 H         1 COA         0.0794
     79 HS1        80.6217  -93.2588   -8.4145 H         1 COA         0.1933
@<TRIPOS>BOND
     1    1    2 ar
     2    1    6 ar
     3    2    3 ar
     4    2   49 1
     5    3    4 ar
     6    4    5 ar
     7    4   10 ar
     8    5    6 ar
     9    5    8 ar
    10    6    7 1
    11    7   50 1
    12    7   51 1
    13    8    9 ar
    14    9   10 ar
    15    9   52 1
    16   10   11 1
    17   11   12 1
    18   11   21 1
    19   11   53 1
    20   12   13 1
    21   12   14 1
    22   12   54 1
    23   13   55 1
    24   14   15 1
    25   14   20 1
    26   14   56 1
    27   15   16 1
    28   16   17 2
    29   16   18 1
    30   16   19 1
    31   20   21 1
    32   20   22 1
    33   20   57 1
    34   22   23 1
    35   22   58 1
    36   22   59 1
    37   23   24 1
    38   24   25 2
    39   24   26 1
    40   24   27 1
    41   27   28 1
    42   28   29 2
    43   28   30 1
    44   28   31 1
    45   31   33 1
    46   32   33 1
    47   32   34 1
    48   32   35 1
    49   32   36 1
    50   33   60 1
    51   33   61 1
    52   34   62 1
    53   34   63 1
    54   34   64 1
    55   35   65 1
    56   35   66 1
    57   35   67 1
    58   36   37 1
    59   36   38 1
    60   36   68 1
    61   38   39 2
    62   38   40 am
    63   40   41 1
    64   40   69 1
    65   41   42 1
    66   41   70 1
    67   41   71 1
    68   42   43 1
    69   42   72 1
    70   42   73 1
    71   43   44 2
    72   43   45 am
    73   45   46 1
    74   45   74 1
    75   46   47 1
    76   46   75 1
    77   46   76 1
    78   47   48 1
    79   47   77 1
    80   47   78 1
    81   48   79 1
@<TRIPOS>SUBSTRUCTURE
     1 COA         1 GROUP   0 A     ****
@<TRIPOS>MOLECULE
[5-(6-azanidylpurin-9-yl)-4-hydroxy-2-[[[[3-hydroxy-2,2-dimethyl-4-oxo-4-[[3-oxo-3-(2-sulfanylethylamino)propyl]amino]butoxy]-oxido-phosphoryl]oxy-oxido-phosphoryl]oxymethyl]tetrahydrofuran-3-yl] phosphate
   79    81     1     0     0
SMALL
USER_CHARGES

@<TRIPOS>ATOM
      1 N1A        88.6040  -84.6940  -15.4010 N.ar      1 COA        -0.9778
      2 C2A        88.5170  -85.3620  -16.6140 C.ar      1 COA         0.6567
      3 N3A        88.4530  -84.8110  -17.8270 N.ar      1 COA        -0.8148
      4 C4A        88.4890  -83.4640  -17.7910 C.ar      1 COA         0.5582
      5 C5A        88.5780  -82.6230  -16.6440 C.ar      1 COA        -0.2308
      6 C6A        88.6370  -83.3150  -15.3450 C.ar      1 COA         0.6910
      7 N6A        88.7190  -82.6940  -14.2090 N.2       1 COA        -0.8384
      8 N7A        88.5930  -81.3110  -16.9840 N.ar      1 COA        -0.5754
      9 C8A        88.5140  -81.2930  -18.3130 C.ar      1 COA         0.4751
     10 N9A        88.4440  -82.5690  -18.8600 N.pl3     1 COA        -0.6605
     11 C1B        88.2830  -82.8930  -20.3050 C.3       1 COA         0.3964
     12 C2B        89.1690  -84.0030  -20.8100 C.3       1 COA         0.0875
     13 O2B        90.4930  -83.5370  -21.0680 O.3       1 COA        -0.6238
     14 C3B        88.4470  -84.3520  -22.1030 C.3       1 COA         0.1938
     15 O3B        88.5340  -83.3380  -23.0200 O.3       1 COA        -0.5650
     16 P3B        88.5670  -83.7630  -24.6320 P.3       1 COA         1.3187
     17 O7A        89.7760  -84.7730  -24.8120 O.2       1 COA        -0.9314
     18 O8A        88.8680  -82.4540  -25.4620 O.3       1 COA        -0.9314
     19 O9A        87.1870  -84.4450  -25.0050 O.3       1 COA        -0.9314
     20 C4B        86.9970  -84.4910  -21.5560 C.3       1 COA         0.0971
     21 O4B        86.9570  -83.4610  -20.4760 O.3       1 COA        -0.4409
     22 C5B        86.5780  -85.7930  -20.9340 C.3       1 COA         0.1628
     23 O5B        86.6630  -86.7650  -22.0150 O.3       1 COA        -0.5843
     24 P1A        85.5120  -87.8990  -22.1320 P.3       1 COA         1.5889
     25 O1A        85.9730  -88.8420  -23.2310 O.2       1 COA        -0.8879
     26 O2A        84.1350  -87.3250  -22.2760 O.3       1 COA        -0.8879
     27 O3A        85.5440  -88.6720  -20.8060 O.3       1 COA        -0.8170
     28 P2A        86.5260  -89.8380  -20.2320 P.3       1 COA         1.6026
     29 O4A        85.9410  -91.2220  -20.3870 O.2       1 COA        -0.8900
     30 O5A        87.9130  -89.7660  -20.8150 O.3       1 COA        -0.8900
     31 O6A        86.6310  -89.4110  -18.6740 O.3       1 COA        -0.5946
     32 CBP        85.9600  -88.6360  -16.5360 C.3       1 COA        -0.0631
     33 CCP        85.5210  -89.4080  -17.8120 C.3       1 COA         0.2341
     34 CDP        87.4920  -88.7900  -16.2100 C.3       1 COA        -0.0843
     35 CEP        85.6020  -87.2100  -16.9500 C.3       1 COA        -0.0843
     36 CAP        85.1850  -89.1370  -15.2540 C.3       1 COA         0.1105
     37 OAP        85.5020  -88.2660  -14.1280 O.3       1 COA        -0.5534
     38 C9P        83.6680  -89.1660  -15.4160 C.2       1 COA         0.6356
     39 O9P        83.0890  -90.0690  -16.2240 O.2       1 COA        -0.6122
     40 N8P        82.9960  -88.2770  -14.7190 N.am      1 COA        -0.5894
     41 C7P        81.5360  -88.1930  -14.7460 C.3       1 COA         0.1065
     42 C6P        81.0500  -88.2840  -13.2980 C.3       1 COA        -0.1745
     43 C5P        81.4830  -89.5720  -12.6330 C.2       1 COA         0.6625
     44 O5P        81.5080  -90.7220  -13.2480 O.2       1 COA        -0.5971
     45 N4P        81.8280  -89.4210  -11.3700 N.am      1 COA        -0.6032
     46 C3P        82.3050  -90.5540  -10.4610 C.3       1 COA         0.1009
     47 C2P        81.0660  -91.3020  -10.0080 C.3       1 COA        -0.0103
     48 S1P        81.4370  -92.6410   -8.8190 S.3       1 COA        -0.4395
     49 H2A        88.4990  -86.4230  -16.5720 H         1 COA        -0.0413
     50 H62A       88.7598  -83.2668  -13.2708 H         1 COA         0.2548
     51 H8A        88.5050  -80.4030  -18.8910 H         1 COA         0.0960
     52 H1B        88.4770  -81.9515  -20.8397 H         1 COA         0.0860
     53 H2B        89.3598  -84.8274  -20.1072 H         1 COA         0.0520
     54 HO2A       91.1454  -83.2437  -20.2324 H         1 COA         0.4356
     55 H3B        88.8713  -85.1623  -22.7140 H         1 COA         0.0673
     56 H4B        86.2834  -84.3952  -22.3877 H         1 COA         0.1086
     57 H51A       87.2605  -86.0410  -20.1077 H         1 COA         0.0336
     58 H52A       85.5523  -85.7014  -20.5474 H         1 COA         0.0336
     59 H121       84.6753  -88.9064  -18.3050 H         1 COA         0.0319
     60 H122       85.2421  -90.4441  -17.5697 H         1 COA         0.0319
     61 H131       88.0860  -88.4540  -17.0727 H         1 COA         0.0372
     62 H132       87.7175  -89.8456  -15.9983 H         1 COA         0.0372
     63 H133       87.7432  -88.1780  -15.3311 H         1 COA         0.0372
     64 H141       86.1780  -86.9326  -17.8451 H         1 COA         0.0372
     65 H142       85.8437  -86.5184  -16.1295 H         1 COA         0.0372
     66 H143       84.5265  -87.1522  -17.1735 H         1 COA         0.0372
     67 H10        85.5087  -90.1600  -15.0118 H         1 COA         0.0040
     68 HO1        86.5501  -88.1036  -13.8363 H         1 COA         0.4026
     69 HN8        83.5757  -87.5785  -14.0977 H         1 COA         0.3160
     70 H71        81.2320  -87.2366  -15.1965 H         1 COA         0.0699
     71 H72        81.1319  -89.0242  -15.3425 H         1 COA         0.0699
     72 H61        81.4621  -87.4441  -12.7195 H         1 COA         0.0661
     73 H62        79.9511  -88.2397  -13.2766 H         1 COA         0.0661
     74 HN4        81.7547  -88.3956  -10.9785 H         1 COA         0.3062
     75 H31        82.9779  -91.2173  -11.0242 H         1 COA         0.0607
     76 H32        82.8431  -90.1313   -9.5998 H         1 COA         0.0607
     77 H21        80.3736  -90.6017   -9.5181 H         1 COA         0.0758
     78 H22        80.5724  -91.7559  -10.8800 H         1 COA         0.0758
     79 HS1        80.6217  -93.2588   -8.4145 H         1 COA         0.2188
@<TRIPOS>BOND
     1    1    2 ar
     2    1    6 ar
     3    2    3 ar
     4    2   49 1
     5    3    4 ar
     6    4    5 ar
     7    4   10 ar
     8    5    6 ar
     9    5    8 ar
    10    6    7 1
    11    7   50 1
    12    8    9 ar
    13    9   10 ar
    14    9   51 1
    15   10   11 1
    16   11   12 1
    17   11   21 1
    18   11   52 1
    19   12   13 1
    20   12   14 1
    21   12   53 1
    22   13   54 1
    23   14   15 1
    24   14   20 1
    25   14   55 1
    26   15   16 1
    27   16   17 2
    28   16   18 1
    29   16   19 1
    30   20   21 1
    31   20   22 1
    32   20   56 1
    33   22   23 1
    34   22   57 1
    35   22   58 1
    36   23   24 1
    37   24   25 2
    38   24   26 1
    39   24   27 1
    40   27   28 1
    41   28   29 2
    42   28   30 1
    43   28   31 1
    44   31   33 1
    45   32   33 1
    46   32   34 1
    47   32   35 1
    48   32   36 1
    49   33   59 1
    50   33   60 1
    51   34   61 1
    52   34   62 1
    53   34   63 1
    54   35   64 1
    55   35   65 1
    56   35   66 1
    57   36   37 1
    58   36   38 1
    59   36   67 1
    60   37   68 1
    61   38   39 2
    62   38   40 am
    63   40   41 1
    64   40   69 1
    65   41   42 1
    66   41   70 1
    67   41   71 1
    68   42   43 1
    69   42   72 1
    70   42   73 1
    71   43   44 2
    72   43   45 am
    73   45   46 1
    74   45   74 1
    75   46   47 1
    76   46   75 1
    77   46   76 1
    78   47   48 1
    79   47   77 1
    80   47   78 1
    81   48   79 1
@<TRIPOS>SUBSTRUCTURE
     1 COA         1 GROUP   0 A     ****
