PO4
  CCTOOLS-0326171104

  5  4  0  0  0  0  0  0  0  0999 V2000
   29.9950   23.5160   13.2490 P   0  0  0  0  0
   31.0920   22.9880   14.1640 O   0  0  0  0  0
   30.4040   24.8960   12.6470 O   0  5  0  0  0
   29.6460   22.5180   12.1260 O   0  5  0  0  0
   28.7270   23.7440   14.1610 O   0  5  0  0  0
  1  2  2  0  0  0
  1  3  1  0  0  0
  1  4  1  0  0  0
  1  5  1  0  0  0
M  CHG  1   3  -1
M  CHG  1   4  -1
M  CHG  1   5  -1
M  END
$$$$
