@<TRIPOS>MOLECULE
GLC
   24    24     1     0     0
SMALL
NO_CHARGES

@<TRIPOS>ATOM
      1  C1         8.5370   13.1410   37.4360 C.3       1 GLC         0.0000
      2  C2         8.6570   12.6250   38.8660 C.3       1 GLC         0.0000
      3  C3         8.9460   13.7530   39.8190 C.3       1 GLC         0.0000
      4  C4        10.1450   14.5230   39.3600 C.3       1 GLC         0.0000
      5  C5         9.8470   15.1610   37.9650 C.3       1 GLC         0.0000
      6  C6        11.1090   15.8230   37.3730 C.3       1 GLC         0.0000
      7  O1         7.3430   13.7470   37.2600 O.3       1 GLC         0.0000
      8  O2         7.4300   12.0310   39.2450 O.3       1 GLC         0.0000
      9  O3         9.2530   13.1490   41.0940 O.3       1 GLC         0.0000
     10  O4        10.3170   15.6750   40.2450 O.3       1 GLC         0.0000
     11  O5         9.3520   14.1830   37.0850 O.3       1 GLC         0.0000
     12  O6        10.5830   16.5420   36.2380 O.3       1 GLC         0.0000
     13  H1         8.7560   12.2300   36.8600 H         1 GLC         0.0000
     14  H2         9.4800   11.8960   38.9060 H         1 GLC         0.0000
     15  H3         8.0870   14.4370   39.8790 H         1 GLC         0.0000
     16  H4        11.0120   13.8470   39.3410 H         1 GLC         0.0000
     17  H5         9.0860   15.9440   38.1010 H         1 GLC         0.0000
     18  H61       11.5950   16.4960   38.0950 H         1 GLC         0.0000
     19  H62       11.8940   15.1010   37.1050 H         1 GLC         0.0000
     20  HO1        6.9320   13.8890   38.1050 H         1 GLC         0.0000
     21  HO2        7.4190   11.8980   40.1860 H         1 GLC         0.0000
     22  HO3        9.3200   12.2070   40.9910 H         1 GLC         0.0000
     23  HO4       10.3540   15.3790   41.1470 H         1 GLC         0.0000
     24  HO6       10.4670   17.4570   36.4680 H         1 GLC         0.0000
@<TRIPOS>BOND
     1    1    2 1
     2    1    7 1
     3    1   11 1
     4    1   13 1
     5    2    3 1
     6    2    8 1
     7    2   14 1
     8    3    4 1
     9    3    9 1
    10    3   15 1
    11    4    5 1
    12    4   10 1
    13    4   16 1
    14    5    6 1
    15    5   11 1
    16    5   17 1
    17    6   12 1
    18    6   18 1
    19    6   19 1
    20    7   20 1
    21    8   21 1
    22    9   22 1
    23   10   23 1
    24   12   24 1
@<TRIPOS>SUBSTRUCTURE
     1 GLC         1 GROUP 0 A     ****
