GLC
                    3D
 Structure written by MMmdl.
 24 24  0  0  1  0            999 V2000
    8.5370   13.1410   37.4360 C   0  0  1  0  0  0
    8.6570   12.6250   38.8660 C   0  0  1  0  0  0
    8.9460   13.7530   39.8190 C   0  0  2  0  0  0
   10.1450   14.5230   39.3600 C   0  0  1  0  0  0
    9.8470   15.1610   37.9650 C   0  0  1  0  0  0
   11.1090   15.8230   37.3730 C   0  0  0  0  0  0
    7.3430   13.7470   37.2600 O   0  0  0  0  0  0
    7.4300   12.0310   39.2450 O   0  0  0  0  0  0
    9.2530   13.1490   41.0940 O   0  0  0  0  0  0
   10.3170   15.6750   40.2450 O   0  0  0  0  0  0
    9.3520   14.1830   37.0850 O   0  0  0  0  0  0
   10.5830   16.5420   36.2380 O   0  0  0  0  0  0
    8.7307   12.2945   36.7608 H   0  0  0  0  0  0
    9.4361   11.8518   38.9382 H   0  0  0  0  0  0
    8.0864   14.4325   39.9158 H   0  0  0  0  0  0
   11.0162   13.8523   39.3935 H   0  0  0  0  0  0
    9.0288   15.8939   38.0242 H   0  0  0  0  0  0
   11.5624   16.4857   38.1248 H   0  0  0  0  0  0
   11.8316   15.0445   37.0871 H   0  0  0  0  0  0
    6.4119   13.1946   37.4545 H   0  0  0  0  0  0
    7.0314   11.1797   38.6737 H   0  0  0  0  0  0
    8.4985   12.5351   41.6077 H   0  0  0  0  0  0
   10.5410   15.5211   41.3109 H   0  0  0  0  0  0
   11.2580   17.1290   35.5979 H   0  0  0  0  0  0
  1  2  1  0  0  0
  1  7  1  0  0  0
  1 11  1  0  0  0
  1 13  1  0  0  0
  2  3  1  0  0  0
  2  8  1  0  0  0
  2 14  1  0  0  0
  3  4  1  0  0  0
  3  9  1  0  0  0
  3 15  1  0  0  0
  4  5  1  0  0  0
  4 10  1  0  0  0
  4 16  1  0  0  0
  5  6  1  0  0  0
  5 11  1  0  0  0
  5 17  1  0  0  0
  6 12  1  0  0  0
  6 18  1  0  0  0
  6 19  1  0  0  0
  7 20  1  0  0  0
  8 21  1  0  0  0
  9 22  1  0  0  0
 10 23  1  0  0  0
 12 24  1  0  0  0
M  END
> <s_m_source_file>
/cbio/jclab/home/rustenburg/PFK/Epik-Ligands/Results/InProgress/ALPHA-D-GLUCOSE/pH_4.0/ALPHA-D-GLUCOSE_pH_4.0-before_epik.mol2

> <i_m_source_file_index>
1

> <r_epik_Ionization_Penalty>
  0.0000

> <r_epik_Ionization_Penalty_Charging>
  0.0000

> <r_epik_Ionization_Penalty_Neutral>
  0.0000

> <r_epik_State_Penalty>
  0.0000

> <r_epik_Charging_Adjusted_Penalty>
1.61730595514634e-05

> <i_epik_Tot_Q>
0

> <i_epik_Tot_abs_Q>
0

> <s_epik_Chemistry_Notes>
This compound contains an acetal/aminal-like group ( X-CH(R)-Y where X, Y are N, S, or O) that may be acid/base labile, releasing an aldehyde.

$$$$
