F6P
  CCTOOLS-0326171108

 29 29  0  0  1  0  0  0  0  0999 V2000
   11.4170    9.1620   27.0210 O   0  0  0  0  0
   10.0290    9.5780   26.9550 C   0  0  0  0  0
    9.0930    8.3720   27.0220 C   0  0  0  0  0
    9.4370    7.4440   25.9940 O   0  0  0  0  0
    7.6040    8.8040   26.9280 C   0  0  0  0  0
    7.0470    8.5180   25.6720 O   0  0  0  0  0
    6.9240    7.9190   27.9540 C   0  0  0  0  0
    5.7050    8.3770   28.4860 O   0  0  0  0  0
    7.9990    7.7530   28.9850 C   0  0  0  0  0
    9.2430    7.6520   28.2660 O   0  0  0  0  0
    7.7930    6.5030   29.7570 C   0  0  0  0  0
    8.8400    6.5130   30.7050 O   0  0  0  0  0
    8.9960    5.4420   31.8830 P   0  0  0  0  0
    9.9350    6.0670   32.8520 O   0  0  0  0  0
    9.6100    4.2080   31.3380 O   0  0  0  0  0
    7.6960    5.1280   32.5030 O   0  0  0  0  0
   11.9980    9.9110   26.9790 H   0  0  0  0  0
    9.7870   10.3300   27.7410 H   0  0  0  0  0
    9.8290   10.2040   26.0540 H   0  0  0  0  0
    8.8550    6.6940   26.0350 H   0  0  0  0  0
    7.4870    9.9010   27.0900 H   0  0  0  0  0
    6.1360    8.7820   25.6140 H   0  0  0  0  0
    6.5680    6.9690   27.4900 H   0  0  0  0  0
    5.2780    7.8220   29.1280 H   0  0  0  0  0
    7.9910    8.6100   29.6970 H   0  0  0  0  0
    6.7740    6.3980   30.1980 H   0  0  0  0  0
    7.7470    5.5800   29.1320 H   0  0  0  0  0
    9.7020    3.5720   32.0370 H   0  0  0  0  0
    7.7880    4.4920   33.2020 H   0  0  0  0  0
  1  2  1  0  0  0
  1 17  1  0  0  0
  2  3  1  0  0  0
  2 18  1  0  0  0
  2 19  1  0  0  0
  3  4  1  0  0  0
  3  5  1  0  0  0
  3 10  1  0  0  0
  4 20  1  0  0  0
  5  6  1  0  0  0
  5  7  1  0  0  0
  5 21  1  0  0  0
  6 22  1  0  0  0
  7  8  1  0  0  0
  7  9  1  0  0  0
  7 23  1  0  0  0
  8 24  1  0  0  0
  9 10  1  0  0  0
  9 11  1  0  0  0
  9 25  1  0  0  0
 11 12  1  0  0  0
 11 26  1  0  0  0
 11 27  1  0  0  0
 12 13  1  0  0  0
 13 14  2  0  0  0
 13 15  1  0  0  0
 13 16  1  0  0  0
 15 28  1  0  0  0
 16 29  1  0  0  0
M  END
$$$$
