@<TRIPOS>MOLECULE
FAD
   86    91     1     0     0
SMALL
NO_CHARGES

@<TRIPOS>ATOM
      1  PA        21.8380    0.8050   23.1700 P.3       1 FAD         0.0000
      2  O1A       21.3030   -0.5190   22.7220 O.2       1 FAD         0.0000
      3  O2A       21.2420    1.9380   22.7450 O.3       1 FAD         0.0000
      4  O5B       21.5190    0.6820   24.6440 O.3       1 FAD         0.0000
      5  C5B       21.8970    1.6430   25.6850 C.3       1 FAD         0.0000
      6  C4B       20.9970    1.3300   26.9450 C.3       1 FAD         0.0000
      7  O4B       21.4600    2.2240   28.0530 O.3       1 FAD         0.0000
      8  C3B       19.4600    1.6220   26.8060 C.3       1 FAD         0.0000
      9  O3B       18.6710    0.5790   27.2900 O.3       1 FAD         0.0000
     10  C2B       19.2980    2.9730   27.5740 C.3       1 FAD         0.0000
     11  O2B       18.0040    3.1220   28.1030 O.3       1 FAD         0.0000
     12  C1B       20.2760    2.7830   28.6990 C.3       1 FAD         0.0000
     13  N9A       20.8010    4.0200   29.2670 N.pl3     1 FAD         0.0000
     14  C8A       21.1540    5.1530   28.5750 C.ar      1 FAD         0.0000
     15  N7A       21.6680    6.0970   29.3600 N.ar      1 FAD         0.0000
     16  C5A       21.5630    5.5850   30.6310 C.ar      1 FAD         0.0000
     17  C6A       21.9270    6.1470   31.9320 C.ar      1 FAD         0.0000
     18  N6A       22.3520    7.3730   32.0980 N.pl3     1 FAD         0.0000
     19  N1A       21.5850    5.3620   32.9970 N.ar      1 FAD         0.0000
     20  C2A       21.0280    4.1270   32.8470 C.ar      1 FAD         0.0000
     21  N3A       20.7580    3.4920   31.6950 N.ar      1 FAD         0.0000
     22  C4A       21.0940    4.2440   30.6070 C.ar      1 FAD         0.0000
     23  N1        21.1130   -2.2310   14.3340 N.ar      1 FAD         0.0000
     24  C2        21.3700   -3.3170   13.6190 C.ar      1 FAD         0.0000
     25  O2        22.4720   -3.7950   13.5580 O.2       1 FAD         0.0000
     26  N3        20.3350   -4.0620   12.9920 N.am      1 FAD         0.0000
     27  C4        19.0640   -3.5450   12.8700 C.ar      1 FAD         0.0000
     28  O4        18.2010   -4.1990   12.3240 O.2       1 FAD         0.0000
     29  C4X       18.8420   -2.2200   13.4310 C.ar      1 FAD         0.0000
     30  N5        17.6210   -1.6430   13.3240 N.ar      1 FAD         0.0000
     31  C5X       17.4010   -0.5070   14.0540 C.ar      1 FAD         0.0000
     32  C6        16.0920    0.0300   14.0340 C.ar      1 FAD         0.0000
     33  C7        15.7290    1.0490   14.8790 C.ar      1 FAD         0.0000
     34  C7M       14.3190    1.5870   14.8590 C.3       1 FAD         0.0000
     35  C8        16.6660    1.5470   15.8520 C.ar      1 FAD         0.0000
     36  C8M       16.3340    2.7180   16.7390 C.3       1 FAD         0.0000
     37  C9        17.9420    0.9810   15.9280 C.ar      1 FAD         0.0000
     38  C9A       18.3310    0.0200   14.9920 C.ar      1 FAD         0.0000
     39  N10       19.6330   -0.5660   14.9940 N.pl3     1 FAD         0.0000
     40  C10       19.8920   -1.6530   14.2710 C.ar      1 FAD         0.0000
     41  C1'       20.6850    0.0690   15.8130 C.3       1 FAD         0.0000
     42  C2'       21.0540   -0.7970   17.0450 C.3       1 FAD         0.0000
     43  O2'       19.8580   -1.0730   17.7680 O.3       1 FAD         0.0000
     44  C3'       21.9860    0.0460   17.9030 C.3       1 FAD         0.0000
     45  O3'       23.1720    0.2940   17.1450 O.3       1 FAD         0.0000
     46  C4'       22.3780   -0.7320   19.1670 C.3       1 FAD         0.0000
     47  O4'       21.2310   -1.0360   19.9620 O.3       1 FAD         0.0000
     48  C5'       23.3750    0.1170   19.9180 C.3       1 FAD         0.0000
     49  O5'       23.8840   -0.6520   21.1830 O.3       1 FAD         0.0000
     50  P         24.5070    0.1030   22.3450 P.3       1 FAD         0.0000
     51  O1P       24.9820   -0.9910   23.3090 O.2       1 FAD         0.0000
     52  O2P       25.4370    1.0540   21.9500 O.3       1 FAD         0.0000
     53  O3P       23.4730    0.8660   23.0320 O.3       1 FAD         0.0000
     54 HOA2       21.5810    2.7780   23.0290 H         1 FAD         0.0000
     55 H51A       22.9880    1.6370   25.9120 H         1 FAD         0.0000
     56 H52A       21.8280    2.7040   25.3490 H         1 FAD         0.0000
     57  H4B       21.1080    0.2320   27.1080 H         1 FAD         0.0000
     58  H3B       19.1080    1.7000   25.7500 H         1 FAD         0.0000
     59 HO3A       17.7410    0.7550   27.2050 H         1 FAD         0.0000
     60  H2B       19.4660    3.8690   26.9320 H         1 FAD         0.0000
     61 HO2A       17.9050    3.9430   28.5700 H         1 FAD         0.0000
     62  H1B       19.7600    2.1960   29.4940 H         1 FAD         0.0000
     63  H8A       21.0350    5.2920   27.4870 H         1 FAD         0.0000
     64 H61A       22.6050    7.7640   33.0040 H         1 FAD         0.0000
     65 H62A       21.6530    7.9920   31.6860 H         1 FAD         0.0000
     66  H2A       20.7640    3.5760   33.7660 H         1 FAD         0.0000
     67  HN3       20.5090   -4.9950   12.6180 H         1 FAD         0.0000
     68  H6        15.3300   -0.3580   13.3370 H         1 FAD         0.0000
     69 HM71       14.0240    2.4140   15.5450 H         1 FAD         0.0000
     70 HM72       14.0740    1.8920   13.8150 H         1 FAD         0.0000
     71 HM73       13.6160    0.7350   15.0130 H         1 FAD         0.0000
     72 HM81       17.0590    3.1030   17.4920 H         1 FAD         0.0000
     73 HM82       16.0340    3.5690   16.0840 H         1 FAD         0.0000
     74 HM83       15.3800    2.4870   17.2680 H         1 FAD         0.0000
     75  H9        18.6390    1.2910   16.7230 H         1 FAD         0.0000
     76 H1'1       21.5850    0.3100   15.2010 H         1 FAD         0.0000
     77 H1'2       20.3960    1.1030   16.1140 H         1 FAD         0.0000
     78  H2'       21.5400   -1.7570   16.7550 H         1 FAD         0.0000
     79 HO2'       20.0840   -1.6030   18.5220 H         1 FAD         0.0000
     80  H3'       21.4790    0.9960   18.1930 H         1 FAD         0.0000
     81 HO3'       23.7530    0.8200   17.6800 H         1 FAD         0.0000
     82  H4'       22.8340   -1.7140   18.9020 H         1 FAD         0.0000
     83 HO4'       21.4730   -1.5170   20.7440 H         1 FAD         0.0000
     84 H5'1       24.2150    0.4510   19.2650 H         1 FAD         0.0000
     85 H5'2       22.9600    1.1190   20.1760 H         1 FAD         0.0000
     86 HOP2       25.8260    1.5260   22.6760 H         1 FAD         0.0000
@<TRIPOS>BOND
     1    1    2 2
     2    1    3 1
     3    1    4 1
     4    1   53 1
     5    3   54 1
     6    4    5 1
     7    5    6 1
     8    5   55 1
     9    5   56 1
    10    6    7 1
    11    6    8 1
    12    6   57 1
    13    7   12 1
    14    8    9 1
    15    8   10 1
    16    8   58 1
    17    9   59 1
    18   10   11 1
    19   10   12 1
    20   10   60 1
    21   11   61 1
    22   12   13 1
    23   12   62 1
    24   13   14 ar
    25   13   22 ar
    26   14   15 ar
    27   14   63 1
    28   15   16 ar
    29   16   17 ar
    30   16   22 ar
    31   17   18 1
    32   17   19 ar
    33   18   64 1
    34   18   65 1
    35   19   20 ar
    36   20   21 ar
    37   20   66 1
    38   21   22 ar
    39   23   24 ar
    40   23   40 ar
    41   24   25 2
    42   24   26 ar
    43   26   27 ar
    44   26   67 1
    45   27   28 2
    46   27   29 ar
    47   29   30 ar
    48   29   40 1
    49   30   31 ar
    50   31   32 ar
    51   31   38 ar
    52   32   33 ar
    53   32   68 1
    54   33   34 1
    55   33   35 ar
    56   34   69 1
    57   34   70 1
    58   34   71 1
    59   35   36 1
    60   35   37 ar
    61   36   72 1
    62   36   73 1
    63   36   74 1
    64   37   38 ar
    65   37   75 1
    66   38   39 ar
    67   39   40 ar
    68   39   41 1
    69   41   42 1
    70   41   76 1
    71   41   77 1
    72   42   43 1
    73   42   44 1
    74   42   78 1
    75   43   79 1
    76   44   45 1
    77   44   46 1
    78   44   80 1
    79   45   81 1
    80   46   47 1
    81   46   48 1
    82   46   82 1
    83   47   83 1
    84   48   49 1
    85   48   84 1
    86   48   85 1
    87   49   50 1
    88   50   51 2
    89   50   52 1
    90   50   53 1
    91   52   86 1
@<TRIPOS>SUBSTRUCTURE
     1 FAD         1 GROUP 0 A     ****
