@<TRIPOS>MOLECULE
[[[5-(6-amino-1,8-dihydropurine-6,8-diylium-7-id-9-yl)-3,4-dihydroxy-tetrahydrofuran-2-yl]methoxy-oxido-phosphoryl]oxy-oxido-phosphoryl] phosphate
   44    46     1     0     0
SMALL
USER_CHARGES

@<TRIPOS>ATOM
      1 PG         -2.5247    2.3020   -5.5270 P.3       1 ATP        -1.1921
      2 O1G        -3.1211    1.0513   -6.1640 O.co2     1 ATP         0.3195
      3 O2G        -3.2636    2.7888   -4.2849 O.co2     1 ATP         0.3195
      4 O3G        -2.1761    3.4053   -6.5206 O.co2     1 ATP         0.3195
      5 PB          0.2195    1.1748   -5.7563 P.3       1 ATP        -1.1062
      6 O1B        -0.1648   -0.1877   -6.2888 O.co2     1 ATP         0.3195
      7 O2B         0.7994    2.2357   -6.6648 O.co2     1 ATP         0.3195
      8 O3B        -1.0581    1.8069   -4.9580 O.3       1 ATP         0.4672
      9 PA          2.7413    0.3775   -4.4298 P.3       1 ATP        -1.1062
     10 O1A         3.6560    1.3416   -5.1533 O.co2     1 ATP         0.3195
     11 O2A         2.7031   -1.0864   -4.8115 O.co2     1 ATP         0.3195
     12 O3A         1.2211    0.9740   -4.4828 O.3       1 ATP         0.4672
     13 O5'         3.0213    0.5153   -2.8245 O.3       1 ATP         0.1618
     14 C5'         2.2816   -0.2918   -1.9206 C.3       1 ATP         0.1504
     15 C4'         2.7248    0.0226   -0.4980 C.3       1 ATP         0.1111
     16 O4'         2.4697    1.4219   -0.2462 O.3       1 ATP        -0.1436
     17 C3'         1.9404   -0.7419    0.5596 C.3       1 ATP         0.1111
     18 O3'         2.7418   -0.8086    1.7389 O.3       1 ATP        -0.2728
     19 C2'         0.7477    0.1630    0.7858 C.3       1 ATP         0.1111
     20 O2'         0.1373   -0.0577    2.0407 O.3       1 ATP        -0.2728
     21 C1'         1.3733    1.5427    0.6747 C.3       1 ATP         0.2693
     22 N9          0.4520    2.5240    0.1767 N.pl3     1 ATP        -0.3222
     23 C8          0.1798    2.8712   -1.2933 C.ar      1 ATP         0.1640
     24 N7         -0.7494    3.8400   -1.3610 N.2       1 ATP        -0.1640
     25 C5         -1.0173    4.0603   -0.0358 C.ar      1 ATP         0.0820
     26 C6         -2.0105    5.0717    0.4241 C.ar      1 ATP         0.1640
     27 N6         -2.6723    5.7982   -0.4628 N.pl3     1 ATP        -0.4916
     28 N1         -2.1445    5.1522    1.7502 N.pl3     1 ATP        -0.4390
     29 C2         -1.3755    4.3143    2.6427 C.ar      1 ATP         0.5691
     30 N3         -0.5075    3.4292    2.2616 N.ar      1 ATP        -0.4283
     31 C4         -0.3667    3.3425    0.9070 C.ar      1 ATP         0.2226
     32 H5'1        1.2163   -0.0770   -2.0471 H         1 ATP        -0.0393
     33 H5'2        2.4655   -1.3443   -2.1563 H         1 ATP        -0.0393
     34 H4'         3.8040   -0.1399   -0.4044 H         1 ATP        -0.0393
     35 H3'         1.6768   -1.7637    0.2732 H         1 ATP        -0.0393
     36 HO3'        2.2231   -1.2979    2.3952 H         1 ATP         0.2010
     37 H2'         0.0002   -0.0084   -0.0014 H         1 ATP        -0.0393
     38 HO2'       -0.6132    0.5577    2.1063 H         1 ATP         0.2010
     39 H1'         1.7718    1.9211    1.6015 H         1 ATP        -0.0393
     40 H8          0.6089    2.4651   -2.2147 H         1 ATP         0.0000
     41 HN61       -2.5055    5.6680   -1.4503 H         1 ATP         0.2048
     42 HN62       -3.3462    6.4841   -0.1542 H         1 ATP         0.2048
     43 H2         -1.5932    4.4937    3.7066 H         1 ATP        -0.1292
     44 H44        -2.8098    5.8270    2.1160 H         1 ATP         0.2048
@<TRIPOS>BOND
     1    1    2 2
     2    1    3 1
     3    1    4 1
     4    1    8 1
     5    5    6 2
     6    5    7 1
     7    5    8 1
     8    5   12 1
     9    9   10 2
    10    9   11 1
    11    9   12 1
    12    9   13 1
    13   13   14 1
    14   14   15 1
    15   14   32 1
    16   14   33 1
    17   15   16 1
    18   15   17 1
    19   15   34 1
    20   16   21 1
    21   17   18 1
    22   17   19 1
    23   17   35 1
    24   18   36 1
    25   19   20 1
    26   19   21 1
    27   19   37 1
    28   20   38 1
    29   21   22 1
    30   21   39 1
    31   22   23 ar
    32   22   31 ar
    33   23   24 ar
    34   23   40 1
    35   24   25 ar
    36   25   26 ar
    37   25   31 ar
    38   26   27 1
    39   26   28 ar
    40   27   41 1
    41   27   42 1
    42   28   29 ar
    43   28   44 1
    44   29   30 ar
    45   29   43 1
    46   30   31 ar
@<TRIPOS>SUBSTRUCTURE
     1 ATP         1 GROUP 0 A     ****
@<TRIPOS>MOLECULE
[[[5-(6-amino-1,8-dihydropurine-6,8-diylium-7-id-9-yl)-3,4-dihydroxy-tetrahydrofuran-2-yl]methoxy-oxido-phosphoryl]oxy-oxido-phosphoryl] phosphate
   44    46     1     0     0
SMALL
USER_CHARGES

@<TRIPOS>ATOM
      1 PG         -0.2603    4.7847   -4.7972 P.3       1 ATP        -1.1921
      2 O1G         0.5353    5.4878   -5.8920 O.co2     1 ATP         0.3195
      3 O2G        -1.3668    3.8703   -5.3123 O.co2     1 ATP         0.3195
      4 O3G        -0.6838    5.6943   -3.6487 O.co2     1 ATP         0.3195
      5 PB          2.2458    4.0719   -3.3602 P.3       1 ATP        -1.1062
      6 O1B         3.2246    4.6023   -4.3840 O.co2     1 ATP         0.3195
      7 O2B         1.9667    4.8260   -2.0793 O.co2     1 ATP         0.3195
      8 O3B         0.8262    3.7556   -4.1043 O.3       1 ATP         0.4672
      9 PA          2.9240    1.2545   -3.9582 P.3       1 ATP        -1.1062
     10 O1A         4.1682    1.5224   -4.7766 O.co2     1 ATP         0.3195
     11 O2A         1.6205    0.8833   -4.6314 O.co2     1 ATP         0.3195
     12 O3A         2.6642    2.5395   -2.9830 O.3       1 ATP         0.4672
     13 O5'         3.2903    0.1346   -2.8241 O.3       1 ATP         0.1618
     14 C5'         2.2816   -0.2918   -1.9206 C.3       1 ATP         0.1504
     15 C4'         2.7248    0.0226   -0.4980 C.3       1 ATP         0.1111
     16 O4'         2.4697    1.4219   -0.2462 O.3       1 ATP        -0.1436
     17 C3'         1.9404   -0.7419    0.5596 C.3       1 ATP         0.1111
     18 O3'         2.7418   -0.8086    1.7389 O.3       1 ATP        -0.2728
     19 C2'         0.7477    0.1630    0.7858 C.3       1 ATP         0.1111
     20 O2'         0.1373   -0.0577    2.0407 O.3       1 ATP        -0.2728
     21 C1'         1.3733    1.5427    0.6747 C.3       1 ATP         0.2693
     22 N9          0.4520    2.5240    0.1767 N.pl3     1 ATP        -0.3222
     23 C8         -0.3054    2.4845   -1.1576 C.ar      1 ATP         0.1640
     24 N7         -1.0755    3.5806   -1.2691 N.2       1 ATP        -0.1640
     25 C5         -0.8043    4.2306   -0.0942 C.ar      1 ATP         0.0820
     26 C6         -1.4324    5.5335    0.2646 C.ar      1 ATP         0.1640
     27 N6         -2.2885    6.1054   -0.5675 N.pl3     1 ATP        -0.4916
     28 N1         -1.0537    6.0229    1.4478 N.pl3     1 ATP        -0.4390
     29 C2         -0.1096    5.3242    2.2908 C.ar      1 ATP         0.5691
     30 N3          0.4468    4.1904    1.9960 N.ar      1 ATP        -0.4283
     31 C4          0.0631    3.6855    0.7877 C.ar      1 ATP         0.2226
     32 H5'1        1.3514    0.2330   -2.1577 H         1 ATP        -0.0393
     33 H5'2        2.1280   -1.3678   -2.0460 H         1 ATP        -0.0393
     34 H4'         3.8040   -0.1399   -0.4044 H         1 ATP        -0.0393
     35 H3'         1.6768   -1.7637    0.2732 H         1 ATP        -0.0393
     36 HO3'        2.2231   -1.2979    2.3952 H         1 ATP         0.2010
     37 H2'         0.0002   -0.0084   -0.0014 H         1 ATP        -0.0393
     38 HO2'       -0.6132    0.5577    2.1063 H         1 ATP         0.2010
     39 H1'         1.7718    1.9211    1.6015 H         1 ATP        -0.0393
     40 H8         -0.2991    1.7413   -1.9611 H         1 ATP         0.0000
     41 HN61       -2.5167    5.6603   -1.4447 H         1 ATP         0.2048
     42 HN62       -2.7159    6.9882   -0.3270 H         1 ATP         0.2048
     43 H2          0.1059    5.8491    3.2340 H         1 ATP        -0.1292
     44 H44        -1.4532    6.9099    1.7401 H         1 ATP         0.2048
@<TRIPOS>BOND
     1    1    2 2
     2    1    3 1
     3    1    4 1
     4    1    8 1
     5    5    6 2
     6    5    7 1
     7    5    8 1
     8    5   12 1
     9    9   10 2
    10    9   11 1
    11    9   12 1
    12    9   13 1
    13   13   14 1
    14   14   15 1
    15   14   32 1
    16   14   33 1
    17   15   16 1
    18   15   17 1
    19   15   34 1
    20   16   21 1
    21   17   18 1
    22   17   19 1
    23   17   35 1
    24   18   36 1
    25   19   20 1
    26   19   21 1
    27   19   37 1
    28   20   38 1
    29   21   22 1
    30   21   39 1
    31   22   23 ar
    32   22   31 ar
    33   23   24 ar
    34   23   40 1
    35   24   25 ar
    36   25   26 ar
    37   25   31 ar
    38   26   27 1
    39   26   28 ar
    40   27   41 1
    41   27   42 1
    42   28   29 ar
    43   28   44 1
    44   29   30 ar
    45   29   43 1
    46   30   31 ar
@<TRIPOS>SUBSTRUCTURE
     1 ATP         1 GROUP 0 A     ****
@<TRIPOS>MOLECULE
[[[5-(6-amino-1,8-dihydropurine-6,8-diylium-7-id-9-yl)-3,4-dihydroxy-tetrahydrofuran-2-yl]methoxy-oxido-phosphoryl]oxy-oxido-phosphoryl] phosphate
   44    46     1     0     0
SMALL
USER_CHARGES

@<TRIPOS>ATOM
      1 PG          3.8926    5.8465   -5.0901 P.3       1 ATP        -1.1921
      2 O1G         3.9715    6.8953   -3.9857 O.co2     1 ATP         0.3195
      3 O2G         5.2226    5.5551   -5.7770 O.co2     1 ATP         0.3195
      4 O3G         2.7209    6.0332   -6.0484 O.co2     1 ATP         0.3195
      5 PB          2.2458    4.0719   -3.3602 P.3       1 ATP        -1.1062
      6 O1B         2.2966    4.9106   -2.1026 O.co2     1 ATP         0.3195
      7 O2B         1.0075    4.0352   -4.2277 O.co2     1 ATP         0.3195
      8 O3B         3.5320    4.4474   -4.2951 O.3       1 ATP         0.4672
      9 PA          2.9240    1.2545   -3.9582 P.3       1 ATP        -1.1062
     10 O1A         4.1682    1.5224   -4.7766 O.co2     1 ATP         0.3195
     11 O2A         1.6205    0.8833   -4.6314 O.co2     1 ATP         0.3195
     12 O3A         2.6642    2.5395   -2.9830 O.3       1 ATP         0.4672
     13 O5'         3.2903    0.1346   -2.8241 O.3       1 ATP         0.1618
     14 C5'         2.2816   -0.2918   -1.9206 C.3       1 ATP         0.1504
     15 C4'         2.7248    0.0226   -0.4980 C.3       1 ATP         0.1111
     16 O4'         2.4697    1.4219   -0.2462 O.3       1 ATP        -0.1436
     17 C3'         1.9404   -0.7419    0.5596 C.3       1 ATP         0.1111
     18 O3'         2.7418   -0.8086    1.7389 O.3       1 ATP        -0.2728
     19 C2'         0.7477    0.1630    0.7858 C.3       1 ATP         0.1111
     20 O2'         0.1373   -0.0577    2.0407 O.3       1 ATP        -0.2728
     21 C1'         1.3733    1.5427    0.6747 C.3       1 ATP         0.2693
     22 N9          0.4520    2.5240    0.1767 N.pl3     1 ATP        -0.3222
     23 C8         -0.3054    2.4845   -1.1576 C.ar      1 ATP         0.1640
     24 N7         -1.0755    3.5806   -1.2691 N.2       1 ATP        -0.1640
     25 C5         -0.8043    4.2306   -0.0942 C.ar      1 ATP         0.0820
     26 C6         -1.4324    5.5335    0.2646 C.ar      1 ATP         0.1640
     27 N6         -2.2885    6.1054   -0.5675 N.pl3     1 ATP        -0.4916
     28 N1         -1.0537    6.0229    1.4478 N.pl3     1 ATP        -0.4390
     29 C2         -0.1096    5.3242    2.2908 C.ar      1 ATP         0.5691
     30 N3          0.4468    4.1904    1.9960 N.ar      1 ATP        -0.4283
     31 C4          0.0631    3.6855    0.7877 C.ar      1 ATP         0.2226
     32 H5'1        1.3514    0.2330   -2.1577 H         1 ATP        -0.0393
     33 H5'2        2.1280   -1.3678   -2.0460 H         1 ATP        -0.0393
     34 H4'         3.8040   -0.1399   -0.4044 H         1 ATP        -0.0393
     35 H3'         1.6768   -1.7637    0.2732 H         1 ATP        -0.0393
     36 HO3'        2.2231   -1.2979    2.3952 H         1 ATP         0.2010
     37 H2'         0.0002   -0.0084   -0.0014 H         1 ATP        -0.0393
     38 HO2'       -0.6132    0.5577    2.1063 H         1 ATP         0.2010
     39 H1'         1.7718    1.9211    1.6015 H         1 ATP        -0.0393
     40 H8         -0.2991    1.7413   -1.9611 H         1 ATP         0.0000
     41 HN61       -2.5167    5.6603   -1.4447 H         1 ATP         0.2048
     42 HN62       -2.7159    6.9882   -0.3270 H         1 ATP         0.2048
     43 H2          0.1059    5.8491    3.2340 H         1 ATP        -0.1292
     44 H44        -1.4532    6.9099    1.7401 H         1 ATP         0.2048
@<TRIPOS>BOND
     1    1    2 2
     2    1    3 1
     3    1    4 1
     4    1    8 1
     5    5    6 2
     6    5    7 1
     7    5    8 1
     8    5   12 1
     9    9   10 2
    10    9   11 1
    11    9   12 1
    12    9   13 1
    13   13   14 1
    14   14   15 1
    15   14   32 1
    16   14   33 1
    17   15   16 1
    18   15   17 1
    19   15   34 1
    20   16   21 1
    21   17   18 1
    22   17   19 1
    23   17   35 1
    24   18   36 1
    25   19   20 1
    26   19   21 1
    27   19   37 1
    28   20   38 1
    29   21   22 1
    30   21   39 1
    31   22   23 ar
    32   22   31 ar
    33   23   24 ar
    34   23   40 1
    35   24   25 ar
    36   25   26 ar
    37   25   31 ar
    38   26   27 1
    39   26   28 ar
    40   27   41 1
    41   27   42 1
    42   28   29 ar
    43   28   44 1
    44   29   30 ar
    45   29   43 1
    46   30   31 ar
@<TRIPOS>SUBSTRUCTURE
     1 ATP         1 GROUP 0 A     ****
@<TRIPOS>MOLECULE
[[[5-(6-amino-1,8-dihydropurine-6,8-diylium-7-id-9-yl)-3,4-dihydroxy-tetrahydrofuran-2-yl]methoxy-oxido-phosphoryl]oxy-oxido-phosphoryl] phosphate
   44    46     1     0     0
SMALL
USER_CHARGES

@<TRIPOS>ATOM
      1 PG          0.8652    2.8899   -8.1005 P.3       1 ATP        -1.1921
      2 O1G        -0.4019    3.7105   -7.8835 O.co2     1 ATP         0.3195
      3 O2G         2.1151    3.7216   -8.3683 O.co2     1 ATP         0.3195
      4 O3G         0.6891    1.7034   -9.0424 O.co2     1 ATP         0.3195
      5 PB          0.2195    1.1748   -5.7563 P.3       1 ATP        -1.1062
      6 O1B        -1.0106    1.9218   -5.2910 O.co2     1 ATP         0.3195
      7 O2B         0.1047   -0.1410   -6.4931 O.co2     1 ATP         0.3195
      8 O3B         1.1505    2.1899   -6.6347 O.3       1 ATP         0.4672
      9 PA          2.7413    0.3775   -4.4298 P.3       1 ATP        -1.1062
     10 O1A         3.6560    1.3416   -5.1533 O.co2     1 ATP         0.3195
     11 O2A         2.7031   -1.0864   -4.8115 O.co2     1 ATP         0.3195
     12 O3A         1.2211    0.9740   -4.4828 O.3       1 ATP         0.4672
     13 O5'         3.0213    0.5153   -2.8245 O.3       1 ATP         0.1618
     14 C5'         2.2816   -0.2918   -1.9206 C.3       1 ATP         0.1504
     15 C4'         2.7248    0.0226   -0.4980 C.3       1 ATP         0.1111
     16 O4'         2.4697    1.4219   -0.2462 O.3       1 ATP        -0.1436
     17 C3'         1.9404   -0.7419    0.5596 C.3       1 ATP         0.1111
     18 O3'         2.7418   -0.8086    1.7389 O.3       1 ATP        -0.2728
     19 C2'         0.7477    0.1630    0.7858 C.3       1 ATP         0.1111
     20 O2'         0.1373   -0.0577    2.0407 O.3       1 ATP        -0.2728
     21 C1'         1.3733    1.5427    0.6747 C.3       1 ATP         0.2693
     22 N9          0.4520    2.5240    0.1767 N.pl3     1 ATP        -0.3222
     23 C8          0.1798    2.8712   -1.2933 C.ar      1 ATP         0.1640
     24 N7         -0.7494    3.8400   -1.3610 N.2       1 ATP        -0.1640
     25 C5         -1.0173    4.0603   -0.0358 C.ar      1 ATP         0.0820
     26 C6         -2.0105    5.0717    0.4241 C.ar      1 ATP         0.1640
     27 N6         -2.6723    5.7982   -0.4628 N.pl3     1 ATP        -0.4916
     28 N1         -2.1445    5.1522    1.7502 N.pl3     1 ATP        -0.4390
     29 C2         -1.3755    4.3143    2.6427 C.ar      1 ATP         0.5691
     30 N3         -0.5075    3.4292    2.2616 N.ar      1 ATP        -0.4283
     31 C4         -0.3667    3.3425    0.9070 C.ar      1 ATP         0.2226
     32 H5'1        1.2163   -0.0770   -2.0471 H         1 ATP        -0.0393
     33 H5'2        2.4655   -1.3443   -2.1563 H         1 ATP        -0.0393
     34 H4'         3.8040   -0.1399   -0.4044 H         1 ATP        -0.0393
     35 H3'         1.6768   -1.7637    0.2732 H         1 ATP        -0.0393
     36 HO3'        2.2231   -1.2979    2.3952 H         1 ATP         0.2010
     37 H2'         0.0002   -0.0084   -0.0014 H         1 ATP        -0.0393
     38 HO2'       -0.6132    0.5577    2.1063 H         1 ATP         0.2010
     39 H1'         1.7718    1.9211    1.6015 H         1 ATP        -0.0393
     40 H8          0.6089    2.4651   -2.2147 H         1 ATP         0.0000
     41 HN61       -2.5055    5.6680   -1.4503 H         1 ATP         0.2048
     42 HN62       -3.3462    6.4841   -0.1542 H         1 ATP         0.2048
     43 H2         -1.5932    4.4937    3.7066 H         1 ATP        -0.1292
     44 H44        -2.8098    5.8270    2.1160 H         1 ATP         0.2048
@<TRIPOS>BOND
     1    1    2 2
     2    1    3 1
     3    1    4 1
     4    1    8 1
     5    5    6 2
     6    5    7 1
     7    5    8 1
     8    5   12 1
     9    9   10 2
    10    9   11 1
    11    9   12 1
    12    9   13 1
    13   13   14 1
    14   14   15 1
    15   14   32 1
    16   14   33 1
    17   15   16 1
    18   15   17 1
    19   15   34 1
    20   16   21 1
    21   17   18 1
    22   17   19 1
    23   17   35 1
    24   18   36 1
    25   19   20 1
    26   19   21 1
    27   19   37 1
    28   20   38 1
    29   21   22 1
    30   21   39 1
    31   22   23 ar
    32   22   31 ar
    33   23   24 ar
    34   23   40 1
    35   24   25 ar
    36   25   26 ar
    37   25   31 ar
    38   26   27 1
    39   26   28 ar
    40   27   41 1
    41   27   42 1
    42   28   29 ar
    43   28   44 1
    44   29   30 ar
    45   29   43 1
    46   30   31 ar
@<TRIPOS>SUBSTRUCTURE
     1 ATP         1 GROUP 0 A     ****
@<TRIPOS>MOLECULE
[[[5-(6-amino-1,8-dihydropurine-6,8-diylium-7-id-9-yl)-3,4-dihydroxy-tetrahydrofuran-2-yl]methoxy-oxido-phosphoryl]oxy-oxido-phosphoryl] phosphate
   44    46     1     0     0
SMALL
USER_CHARGES

@<TRIPOS>ATOM
      1 PG         -0.7067   -1.0614   -7.4871 P.3       1 ATP        -1.1921
      2 O1G        -0.1482   -0.3697   -8.7262 O.co2     1 ATP         0.3195
      3 O2G        -0.3790   -2.5479   -7.3950 O.co2     1 ATP         0.3195
      4 O3G        -2.1618   -0.7211   -7.1824 O.co2     1 ATP         0.3195
      5 PB          0.2195    1.1748   -5.7563 P.3       1 ATP        -1.1062
      6 O1B         0.9437    1.9686   -6.8207 O.co2     1 ATP         0.3195
      7 O2B        -1.1353    1.6079   -5.2422 O.co2     1 ATP         0.3195
      8 O3B         0.1264   -0.3845   -6.2351 O.3       1 ATP         0.4672
      9 PA          2.7413    0.3775   -4.4298 P.3       1 ATP        -1.1062
     10 O1A         3.6560    1.3416   -5.1533 O.co2     1 ATP         0.3195
     11 O2A         2.7031   -1.0864   -4.8115 O.co2     1 ATP         0.3195
     12 O3A         1.2211    0.9740   -4.4828 O.3       1 ATP         0.4672
     13 O5'         3.0213    0.5153   -2.8245 O.3       1 ATP         0.1618
     14 C5'         2.2816   -0.2918   -1.9206 C.3       1 ATP         0.1504
     15 C4'         2.7248    0.0226   -0.4980 C.3       1 ATP         0.1111
     16 O4'         2.4697    1.4219   -0.2462 O.3       1 ATP        -0.1436
     17 C3'         1.9404   -0.7419    0.5596 C.3       1 ATP         0.1111
     18 O3'         2.7418   -0.8086    1.7389 O.3       1 ATP        -0.2728
     19 C2'         0.7477    0.1630    0.7858 C.3       1 ATP         0.1111
     20 O2'         0.1373   -0.0577    2.0407 O.3       1 ATP        -0.2728
     21 C1'         1.3733    1.5427    0.6747 C.3       1 ATP         0.2693
     22 N9          0.4520    2.5240    0.1767 N.pl3     1 ATP        -0.3222
     23 C8          0.1798    2.8712   -1.2933 C.ar      1 ATP         0.1640
     24 N7         -0.7494    3.8400   -1.3610 N.2       1 ATP        -0.1640
     25 C5         -1.0173    4.0603   -0.0358 C.ar      1 ATP         0.0820
     26 C6         -2.0105    5.0717    0.4241 C.ar      1 ATP         0.1640
     27 N6         -2.6723    5.7982   -0.4628 N.pl3     1 ATP        -0.4916
     28 N1         -2.1445    5.1522    1.7502 N.pl3     1 ATP        -0.4390
     29 C2         -1.3755    4.3143    2.6427 C.ar      1 ATP         0.5691
     30 N3         -0.5075    3.4292    2.2616 N.ar      1 ATP        -0.4283
     31 C4         -0.3667    3.3425    0.9070 C.ar      1 ATP         0.2226
     32 H5'1        1.2163   -0.0770   -2.0471 H         1 ATP        -0.0393
     33 H5'2        2.4655   -1.3443   -2.1563 H         1 ATP        -0.0393
     34 H4'         3.8040   -0.1399   -0.4044 H         1 ATP        -0.0393
     35 H3'         1.6768   -1.7637    0.2732 H         1 ATP        -0.0393
     36 HO3'        2.2231   -1.2979    2.3952 H         1 ATP         0.2010
     37 H2'         0.0002   -0.0084   -0.0014 H         1 ATP        -0.0393
     38 HO2'       -0.6132    0.5577    2.1063 H         1 ATP         0.2010
     39 H1'         1.7718    1.9211    1.6015 H         1 ATP        -0.0393
     40 H8          0.6089    2.4651   -2.2147 H         1 ATP         0.0000
     41 HN61       -2.5055    5.6680   -1.4503 H         1 ATP         0.2048
     42 HN62       -3.3462    6.4841   -0.1542 H         1 ATP         0.2048
     43 H2         -1.5932    4.4937    3.7066 H         1 ATP        -0.1292
     44 H44        -2.8098    5.8270    2.1160 H         1 ATP         0.2048
@<TRIPOS>BOND
     1    1    2 2
     2    1    3 1
     3    1    4 1
     4    1    8 1
     5    5    6 2
     6    5    7 1
     7    5    8 1
     8    5   12 1
     9    9   10 2
    10    9   11 1
    11    9   12 1
    12    9   13 1
    13   13   14 1
    14   14   15 1
    15   14   32 1
    16   14   33 1
    17   15   16 1
    18   15   17 1
    19   15   34 1
    20   16   21 1
    21   17   18 1
    22   17   19 1
    23   17   35 1
    24   18   36 1
    25   19   20 1
    26   19   21 1
    27   19   37 1
    28   20   38 1
    29   21   22 1
    30   21   39 1
    31   22   23 ar
    32   22   31 ar
    33   23   24 ar
    34   23   40 1
    35   24   25 ar
    36   25   26 ar
    37   25   31 ar
    38   26   27 1
    39   26   28 ar
    40   27   41 1
    41   27   42 1
    42   28   29 ar
    43   28   44 1
    44   29   30 ar
    45   29   43 1
    46   30   31 ar
@<TRIPOS>SUBSTRUCTURE
     1 ATP         1 GROUP 0 A     ****
@<TRIPOS>MOLECULE
[[[5-(6-amino-1,8-dihydropurine-6,8-diylium-7-id-9-yl)-3,4-dihydroxy-tetrahydrofuran-2-yl]methoxy-oxido-phosphoryl]oxy-oxido-phosphoryl] phosphate
   44    46     1     0     0
SMALL
USER_CHARGES

@<TRIPOS>ATOM
      1 PG         -1.9689    1.1689   -3.7401 P.3       1 ATP        -1.1921
      2 O1G        -0.9692    0.9197   -2.6157 O.co2     1 ATP         0.3195
      3 O2G        -2.9998    2.2510   -3.4368 O.co2     1 ATP         0.3195
      4 O3G        -2.5545   -0.1003   -4.3500 O.co2     1 ATP         0.3195
      5 PB          0.2195    1.1748   -5.7563 P.3       1 ATP        -1.1062
      6 O1B        -0.1648   -0.1877   -6.2888 O.co2     1 ATP         0.3195
      7 O2B         0.7994    2.2357   -6.6648 O.co2     1 ATP         0.3195
      8 O3B        -1.0581    1.8069   -4.9580 O.3       1 ATP         0.4672
      9 PA          2.7413    0.3775   -4.4298 P.3       1 ATP        -1.1062
     10 O1A         3.6560    1.3416   -5.1533 O.co2     1 ATP         0.3195
     11 O2A         2.7031   -1.0864   -4.8115 O.co2     1 ATP         0.3195
     12 O3A         1.2211    0.9740   -4.4828 O.3       1 ATP         0.4672
     13 O5'         3.0213    0.5153   -2.8245 O.3       1 ATP         0.1618
     14 C5'         2.2816   -0.2918   -1.9206 C.3       1 ATP         0.1504
     15 C4'         2.7248    0.0226   -0.4980 C.3       1 ATP         0.1111
     16 O4'         2.4697    1.4219   -0.2462 O.3       1 ATP        -0.1436
     17 C3'         1.9404   -0.7419    0.5596 C.3       1 ATP         0.1111
     18 O3'         2.7418   -0.8086    1.7389 O.3       1 ATP        -0.2728
     19 C2'         0.7477    0.1630    0.7858 C.3       1 ATP         0.1111
     20 O2'         0.1373   -0.0577    2.0407 O.3       1 ATP        -0.2728
     21 C1'         1.3733    1.5427    0.6747 C.3       1 ATP         0.2693
     22 N9          0.4520    2.5240    0.1767 N.pl3     1 ATP        -0.3222
     23 C8         -0.8593    2.9753    0.8343 C.ar      1 ATP         0.1640
     24 N7         -1.4457    3.9121    0.0693 N.2       1 ATP        -0.1640
     25 C5         -0.5581    4.0180   -0.9686 C.ar      1 ATP         0.0820
     26 C6         -0.7663    4.9543   -2.1092 C.ar      1 ATP         0.1640
     27 N6         -1.8429    5.7238   -2.1440 N.pl3     1 ATP        -0.4916
     28 N1          0.1993    4.9263   -3.0311 N.pl3     1 ATP        -0.4390
     29 C2          1.3416    4.0491   -2.9069 C.ar      1 ATP         0.5691
     30 N3          1.5401    3.2284   -1.9225 N.ar      1 ATP        -0.4283
     31 C4          0.5563    3.2529   -0.9772 C.ar      1 ATP         0.2226
     32 H5'1        1.2163   -0.0770   -2.0471 H         1 ATP        -0.0393
     33 H5'2        2.4655   -1.3443   -2.1563 H         1 ATP        -0.0393
     34 H4'         3.8040   -0.1399   -0.4044 H         1 ATP        -0.0393
     35 H3'         1.6768   -1.7637    0.2732 H         1 ATP        -0.0393
     36 HO3'        2.2231   -1.2979    2.3952 H         1 ATP         0.2010
     37 H2'         0.0002   -0.0084   -0.0014 H         1 ATP        -0.0393
     38 HO2'       -0.1554   -0.9852    2.0577 H         1 ATP         0.2010
     39 H1'         1.7718    1.9211    1.6015 H         1 ATP        -0.0393
     40 H8         -1.3368    2.6590    1.7670 H         1 ATP         0.0000
     41 HN61       -2.5230    5.6776   -1.3990 H         1 ATP         0.2048
     42 HN62       -1.9865    6.3594   -2.9154 H         1 ATP         0.2048
     43 H2          2.0529    4.1368   -3.7423 H         1 ATP        -0.1292
     44 H44         0.1054    5.5465   -3.8301 H         1 ATP         0.2048
@<TRIPOS>BOND
     1    1    2 2
     2    1    3 1
     3    1    4 1
     4    1    8 1
     5    5    6 2
     6    5    7 1
     7    5    8 1
     8    5   12 1
     9    9   10 2
    10    9   11 1
    11    9   12 1
    12    9   13 1
    13   13   14 1
    14   14   15 1
    15   14   32 1
    16   14   33 1
    17   15   16 1
    18   15   17 1
    19   15   34 1
    20   16   21 1
    21   17   18 1
    22   17   19 1
    23   17   35 1
    24   18   36 1
    25   19   20 1
    26   19   21 1
    27   19   37 1
    28   20   38 1
    29   21   22 1
    30   21   39 1
    31   22   23 ar
    32   22   31 ar
    33   23   24 ar
    34   23   40 1
    35   24   25 ar
    36   25   26 ar
    37   25   31 ar
    38   26   27 1
    39   26   28 ar
    40   27   41 1
    41   27   42 1
    42   28   29 ar
    43   28   44 1
    44   29   30 ar
    45   29   43 1
    46   30   31 ar
@<TRIPOS>SUBSTRUCTURE
     1 ATP         1 GROUP 0 A     ****
@<TRIPOS>MOLECULE
[[[5-(6-amino-1,8-dihydropurine-6,8-diylium-7-id-9-yl)-3,4-dihydroxy-tetrahydrofuran-2-yl]methoxy-oxido-phosphoryl]oxy-oxido-phosphoryl] phosphate
   44    46     1     0     0
SMALL
USER_CHARGES

@<TRIPOS>ATOM
      1 PG          1.5817    6.1819   -4.1524 P.3       1 ATP        -1.1921
      2 O1G         0.1479    6.1254   -4.6690 O.co2     1 ATP         0.3195
      3 O2G         1.7261    6.7943   -2.7632 O.co2     1 ATP         0.3195
      4 O3G         2.5945    6.6947   -5.1709 O.co2     1 ATP         0.3195
      5 PB          2.0634    3.3787   -5.0265 P.3       1 ATP        -1.1062
      6 O1B         0.6585    3.0673   -5.4924 O.co2     1 ATP         0.3195
      7 O2B         3.1717    3.6623   -6.0157 O.co2     1 ATP         0.3195
      8 O3B         1.9997    4.6003   -3.9436 O.3       1 ATP         0.4672
      9 PA          2.8629    0.6171   -4.3271 P.3       1 ATP        -1.1062
     10 O1A         4.0860    0.5371   -5.2145 O.co2     1 ATP         0.3195
     11 O2A         1.5714   -0.0625   -4.7271 O.co2     1 ATP         0.3195
     12 O3A         2.5543    2.1918   -4.0188 O.3       1 ATP         0.4672
     13 O5'         3.2903    0.1346   -2.8241 O.3       1 ATP         0.1618
     14 C5'         2.2816   -0.2918   -1.9206 C.3       1 ATP         0.1504
     15 C4'         2.7248    0.0226   -0.4980 C.3       1 ATP         0.1111
     16 O4'         2.4697    1.4219   -0.2462 O.3       1 ATP        -0.1436
     17 C3'         1.9404   -0.7419    0.5596 C.3       1 ATP         0.1111
     18 O3'         2.7418   -0.8086    1.7389 O.3       1 ATP        -0.2728
     19 C2'         0.7477    0.1630    0.7858 C.3       1 ATP         0.1111
     20 O2'         0.1373   -0.0577    2.0407 O.3       1 ATP        -0.2728
     21 C1'         1.3733    1.5427    0.6747 C.3       1 ATP         0.2693
     22 N9          0.4520    2.5240    0.1767 N.pl3     1 ATP        -0.3222
     23 C8          0.1798    2.8712   -1.2933 C.ar      1 ATP         0.1640
     24 N7         -0.7494    3.8400   -1.3610 N.2       1 ATP        -0.1640
     25 C5         -1.0173    4.0603   -0.0358 C.ar      1 ATP         0.0820
     26 C6         -2.0105    5.0717    0.4241 C.ar      1 ATP         0.1640
     27 N6         -2.6723    5.7982   -0.4628 N.pl3     1 ATP        -0.4916
     28 N1         -2.1445    5.1522    1.7502 N.pl3     1 ATP        -0.4390
     29 C2         -1.3755    4.3143    2.6427 C.ar      1 ATP         0.5691
     30 N3         -0.5075    3.4292    2.2616 N.ar      1 ATP        -0.4283
     31 C4         -0.3667    3.3425    0.9070 C.ar      1 ATP         0.2226
     32 H5'1        1.3514    0.2330   -2.1577 H         1 ATP        -0.0393
     33 H5'2        2.1280   -1.3678   -2.0460 H         1 ATP        -0.0393
     34 H4'         3.8040   -0.1399   -0.4044 H         1 ATP        -0.0393
     35 H3'         1.6768   -1.7637    0.2732 H         1 ATP        -0.0393
     36 HO3'        2.2231   -1.2979    2.3952 H         1 ATP         0.2010
     37 H2'         0.0002   -0.0084   -0.0014 H         1 ATP        -0.0393
     38 HO2'       -0.6132    0.5577    2.1063 H         1 ATP         0.2010
     39 H1'         1.7718    1.9211    1.6015 H         1 ATP        -0.0393
     40 H8          0.6089    2.4651   -2.2147 H         1 ATP         0.0000
     41 HN61       -2.5055    5.6680   -1.4503 H         1 ATP         0.2048
     42 HN62       -3.3462    6.4841   -0.1542 H         1 ATP         0.2048
     43 H2         -1.5932    4.4937    3.7066 H         1 ATP        -0.1292
     44 H44        -2.8098    5.8270    2.1160 H         1 ATP         0.2048
@<TRIPOS>BOND
     1    1    2 2
     2    1    3 1
     3    1    4 1
     4    1    8 1
     5    5    6 2
     6    5    7 1
     7    5    8 1
     8    5   12 1
     9    9   10 2
    10    9   11 1
    11    9   12 1
    12    9   13 1
    13   13   14 1
    14   14   15 1
    15   14   32 1
    16   14   33 1
    17   15   16 1
    18   15   17 1
    19   15   34 1
    20   16   21 1
    21   17   18 1
    22   17   19 1
    23   17   35 1
    24   18   36 1
    25   19   20 1
    26   19   21 1
    27   19   37 1
    28   20   38 1
    29   21   22 1
    30   21   39 1
    31   22   23 ar
    32   22   31 ar
    33   23   24 ar
    34   23   40 1
    35   24   25 ar
    36   25   26 ar
    37   25   31 ar
    38   26   27 1
    39   26   28 ar
    40   27   41 1
    41   27   42 1
    42   28   29 ar
    43   28   44 1
    44   29   30 ar
    45   29   43 1
    46   30   31 ar
@<TRIPOS>SUBSTRUCTURE
     1 ATP         1 GROUP 0 A     ****
@<TRIPOS>MOLECULE
[[[5-(6-amino-1,8-dihydropurine-6,8-diylium-7-id-9-yl)-3,4-dihydroxy-tetrahydrofuran-2-yl]methoxy-oxido-phosphoryl]oxy-oxido-phosphoryl] phosphate
   44    46     1     0     0
SMALL
USER_CHARGES

@<TRIPOS>ATOM
      1 PG         -1.9689    1.1689   -3.7401 P.3       1 ATP        -1.1921
      2 O1G        -0.9692    0.9197   -2.6157 O.co2     1 ATP         0.3195
      3 O2G        -2.9998    2.2510   -3.4368 O.co2     1 ATP         0.3195
      4 O3G        -2.5545   -0.1003   -4.3500 O.co2     1 ATP         0.3195
      5 PB          0.2195    1.1748   -5.7563 P.3       1 ATP        -1.1062
      6 O1B        -0.1648   -0.1877   -6.2888 O.co2     1 ATP         0.3195
      7 O2B         0.7994    2.2357   -6.6648 O.co2     1 ATP         0.3195
      8 O3B        -1.0581    1.8069   -4.9580 O.3       1 ATP         0.4672
      9 PA          2.7413    0.3775   -4.4298 P.3       1 ATP        -1.1062
     10 O1A         3.6560    1.3416   -5.1533 O.co2     1 ATP         0.3195
     11 O2A         2.7031   -1.0864   -4.8115 O.co2     1 ATP         0.3195
     12 O3A         1.2211    0.9740   -4.4828 O.3       1 ATP         0.4672
     13 O5'         3.0213    0.5153   -2.8245 O.3       1 ATP         0.1618
     14 C5'         2.2816   -0.2918   -1.9206 C.3       1 ATP         0.1504
     15 C4'         2.7248    0.0226   -0.4980 C.3       1 ATP         0.1111
     16 O4'         2.4697    1.4219   -0.2462 O.3       1 ATP        -0.1436
     17 C3'         1.9404   -0.7419    0.5596 C.3       1 ATP         0.1111
     18 O3'         2.7418   -0.8086    1.7389 O.3       1 ATP        -0.2728
     19 C2'         0.7477    0.1630    0.7858 C.3       1 ATP         0.1111
     20 O2'         0.1373   -0.0577    2.0407 O.3       1 ATP        -0.2728
     21 C1'         1.3733    1.5427    0.6747 C.3       1 ATP         0.2693
     22 N9          0.4520    2.5240    0.1767 N.pl3     1 ATP        -0.3222
     23 C8          0.5793    3.3338   -1.1209 C.ar      1 ATP         0.1640
     24 N7         -0.4807    4.1508   -1.2458 N.2       1 ATP        -0.1640
     25 C5         -1.1921    3.8572   -0.1126 C.ar      1 ATP         0.0820
     26 C6         -2.4855    4.5203    0.2163 C.ar      1 ATP         0.1640
     27 N6         -2.9873    5.4319   -0.6020 N.pl3     1 ATP        -0.4916
     28 N1         -3.0414    4.1119    1.3596 N.pl3     1 ATP        -0.4390
     29 C2         -2.4169    3.1071    2.1904 C.ar      1 ATP         0.5691
     30 N3         -1.2928    2.5191    1.9210 N.ar      1 ATP        -0.4283
     31 C4         -0.7202    2.9326    0.7534 C.ar      1 ATP         0.2226
     32 H5'1        1.2163   -0.0770   -2.0471 H         1 ATP        -0.0393
     33 H5'2        2.4655   -1.3443   -2.1563 H         1 ATP        -0.0393
     34 H4'         3.8040   -0.1399   -0.4044 H         1 ATP        -0.0393
     35 H3'         1.6768   -1.7637    0.2732 H         1 ATP        -0.0393
     36 HO3'        3.5553   -1.2733    1.4913 H         1 ATP         0.2010
     37 H2'         0.0002   -0.0084   -0.0014 H         1 ATP        -0.0393
     38 HO2'       -0.1554   -0.9852    2.0577 H         1 ATP         0.2010
     39 H1'         1.7718    1.9211    1.6015 H         1 ATP        -0.0393
     40 H8          1.3565    3.3309   -1.8916 H         1 ATP         0.0000
     41 HN61       -2.4952    5.6785   -1.4487 H         1 ATP         0.2048
     42 HN62       -3.8637    5.8828   -0.3819 H         1 ATP         0.2048
     43 H2         -2.9911    2.8734    3.1000 H         1 ATP        -0.1292
     44 H44        -3.9253    4.5332    1.6302 H         1 ATP         0.2048
@<TRIPOS>BOND
     1    1    2 2
     2    1    3 1
     3    1    4 1
     4    1    8 1
     5    5    6 2
     6    5    7 1
     7    5    8 1
     8    5   12 1
     9    9   10 2
    10    9   11 1
    11    9   12 1
    12    9   13 1
    13   13   14 1
    14   14   15 1
    15   14   32 1
    16   14   33 1
    17   15   16 1
    18   15   17 1
    19   15   34 1
    20   16   21 1
    21   17   18 1
    22   17   19 1
    23   17   35 1
    24   18   36 1
    25   19   20 1
    26   19   21 1
    27   19   37 1
    28   20   38 1
    29   21   22 1
    30   21   39 1
    31   22   23 ar
    32   22   31 ar
    33   23   24 ar
    34   23   40 1
    35   24   25 ar
    36   25   26 ar
    37   25   31 ar
    38   26   27 1
    39   26   28 ar
    40   27   41 1
    41   27   42 1
    42   28   29 ar
    43   28   44 1
    44   29   30 ar
    45   29   43 1
    46   30   31 ar
@<TRIPOS>SUBSTRUCTURE
     1 ATP         1 GROUP 0 A     ****
@<TRIPOS>MOLECULE
[[[5-(6-amino-1,8-dihydropurine-6,8-diylium-7-id-9-yl)-3,4-dihydroxy-tetrahydrofuran-2-yl]methoxy-oxido-phosphoryl]oxy-oxido-phosphoryl] phosphate
   44    46     1     0     0
SMALL
USER_CHARGES

@<TRIPOS>ATOM
      1 PG          5.9854   -4.2839   -5.0513 P.3       1 ATP        -1.1921
      2 O1G         6.4720   -4.4441   -3.6149 O.co2     1 ATP         0.3195
      3 O2G         5.2212   -5.4868   -5.5943 O.co2     1 ATP         0.3195
      4 O3G         7.0323   -3.7234   -6.0083 O.co2     1 ATP         0.3195
      5 PB          4.9946   -1.5400   -4.4659 P.3       1 ATP        -1.1062
      6 O1B         5.2876   -1.5308   -2.9821 O.co2     1 ATP         0.3195
      7 O2B         5.8754   -0.7935   -5.4428 O.co2     1 ATP         0.3195
      8 O3B         4.8518   -3.0893   -4.9642 O.3       1 ATP         0.4672
      9 PA          2.7413    0.3775   -4.4298 P.3       1 ATP        -1.1062
     10 O1A         1.2503    0.2253   -4.6379 O.co2     1 ATP         0.3195
     11 O2A         3.5211    1.4416   -5.1712 O.co2     1 ATP         0.3195
     12 O3A         3.4474   -1.0719   -4.6954 O.3       1 ATP         0.4672
     13 O5'         3.0213    0.5153   -2.8245 O.3       1 ATP         0.1618
     14 C5'         2.2816   -0.2918   -1.9206 C.3       1 ATP         0.1504
     15 C4'         2.7248    0.0226   -0.4980 C.3       1 ATP         0.1111
     16 O4'         2.4697    1.4219   -0.2462 O.3       1 ATP        -0.1436
     17 C3'         1.9404   -0.7419    0.5596 C.3       1 ATP         0.1111
     18 O3'         2.7418   -0.8086    1.7389 O.3       1 ATP        -0.2728
     19 C2'         0.7477    0.1630    0.7858 C.3       1 ATP         0.1111
     20 O2'         0.1373   -0.0577    2.0407 O.3       1 ATP        -0.2728
     21 C1'         1.3733    1.5427    0.6747 C.3       1 ATP         0.2693
     22 N9          0.4520    2.5240    0.1767 N.pl3     1 ATP        -0.3222
     23 C8          0.1798    2.8712   -1.2933 C.ar      1 ATP         0.1640
     24 N7         -0.7494    3.8400   -1.3610 N.2       1 ATP        -0.1640
     25 C5         -1.0173    4.0603   -0.0358 C.ar      1 ATP         0.0820
     26 C6         -2.0105    5.0717    0.4241 C.ar      1 ATP         0.1640
     27 N6         -2.6723    5.7982   -0.4628 N.pl3     1 ATP        -0.4916
     28 N1         -2.1445    5.1522    1.7502 N.pl3     1 ATP        -0.4390
     29 C2         -1.3755    4.3143    2.6427 C.ar      1 ATP         0.5691
     30 N3         -0.5075    3.4292    2.2616 N.ar      1 ATP        -0.4283
     31 C4         -0.3667    3.3425    0.9070 C.ar      1 ATP         0.2226
     32 H5'1        1.2163   -0.0770   -2.0471 H         1 ATP        -0.0393
     33 H5'2        2.4655   -1.3443   -2.1563 H         1 ATP        -0.0393
     34 H4'         3.8040   -0.1399   -0.4044 H         1 ATP        -0.0393
     35 H3'         1.6768   -1.7637    0.2732 H         1 ATP        -0.0393
     36 HO3'        2.2231   -1.2979    2.3952 H         1 ATP         0.2010
     37 H2'         0.0002   -0.0084   -0.0014 H         1 ATP        -0.0393
     38 HO2'       -0.6132    0.5577    2.1063 H         1 ATP         0.2010
     39 H1'         1.7718    1.9211    1.6015 H         1 ATP        -0.0393
     40 H8          0.6089    2.4651   -2.2147 H         1 ATP         0.0000
     41 HN61       -2.5055    5.6680   -1.4503 H         1 ATP         0.2048
     42 HN62       -3.3462    6.4841   -0.1542 H         1 ATP         0.2048
     43 H2         -1.5932    4.4937    3.7066 H         1 ATP        -0.1292
     44 H44        -2.8098    5.8270    2.1160 H         1 ATP         0.2048
@<TRIPOS>BOND
     1    1    2 2
     2    1    3 1
     3    1    4 1
     4    1    8 1
     5    5    6 2
     6    5    7 1
     7    5    8 1
     8    5   12 1
     9    9   10 2
    10    9   11 1
    11    9   12 1
    12    9   13 1
    13   13   14 1
    14   14   15 1
    15   14   32 1
    16   14   33 1
    17   15   16 1
    18   15   17 1
    19   15   34 1
    20   16   21 1
    21   17   18 1
    22   17   19 1
    23   17   35 1
    24   18   36 1
    25   19   20 1
    26   19   21 1
    27   19   37 1
    28   20   38 1
    29   21   22 1
    30   21   39 1
    31   22   23 ar
    32   22   31 ar
    33   23   24 ar
    34   23   40 1
    35   24   25 ar
    36   25   26 ar
    37   25   31 ar
    38   26   27 1
    39   26   28 ar
    40   27   41 1
    41   27   42 1
    42   28   29 ar
    43   28   44 1
    44   29   30 ar
    45   29   43 1
    46   30   31 ar
@<TRIPOS>SUBSTRUCTURE
     1 ATP         1 GROUP 0 A     ****
@<TRIPOS>MOLECULE
[[[5-(6-amino-1,8-dihydropurine-6,8-diylium-7-id-9-yl)-3,4-dihydroxy-tetrahydrofuran-2-yl]methoxy-oxido-phosphoryl]oxy-oxido-phosphoryl] phosphate
   44    46     1     0     0
SMALL
USER_CHARGES

@<TRIPOS>ATOM
      1 PG         -3.5138   -3.3139   -0.7477 P.3       1 ATP        -1.1921
      2 O1G        -3.5819   -4.8349   -0.8349 O.co2     1 ATP         0.3195
      3 O2G        -3.5932   -2.7609    0.6713 O.co2     1 ATP         0.3195
      4 O3G        -4.4025   -2.5887   -1.7528 O.co2     1 ATP         0.3195
      5 PB         -1.2350   -3.2534   -2.6602 P.3       1 ATP        -1.1062
      6 O1B        -1.0485   -4.7477   -2.8009 O.co2     1 ATP         0.3195
      7 O2B        -1.9038   -2.4418   -3.7471 O.co2     1 ATP         0.3195
      8 O3B        -1.9829   -2.9481   -1.2402 O.3       1 ATP         0.4672
      9 PA          1.5549   -2.4565   -3.2403 P.3       1 ATP        -1.1062
     10 O1A         1.2565   -1.5283   -4.3975 O.co2     1 ATP         0.3195
     11 O2A         2.1032   -3.8456   -3.4846 O.co2     1 ATP         0.3195
     12 O3A         0.2110   -2.5768   -2.3187 O.3       1 ATP         0.4672
     13 O5'         2.5245   -1.6648   -2.1878 O.3       1 ATP         0.1618
     14 C5'         2.2816   -0.2918   -1.9206 C.3       1 ATP         0.1504
     15 C4'         2.7248    0.0226   -0.4980 C.3       1 ATP         0.1111
     16 O4'         2.4697    1.4219   -0.2462 O.3       1 ATP        -0.1436
     17 C3'         1.9404   -0.7419    0.5596 C.3       1 ATP         0.1111
     18 O3'         2.7418   -0.8086    1.7389 O.3       1 ATP        -0.2728
     19 C2'         0.7477    0.1630    0.7858 C.3       1 ATP         0.1111
     20 O2'         0.1373   -0.0577    2.0407 O.3       1 ATP        -0.2728
     21 C1'         1.3733    1.5427    0.6747 C.3       1 ATP         0.2693
     22 N9          0.4520    2.5240    0.1767 N.pl3     1 ATP        -0.3222
     23 C8          0.1798    2.8712   -1.2933 C.ar      1 ATP         0.1640
     24 N7         -0.7494    3.8400   -1.3610 N.2       1 ATP        -0.1640
     25 C5         -1.0173    4.0603   -0.0358 C.ar      1 ATP         0.0820
     26 C6         -2.0105    5.0717    0.4241 C.ar      1 ATP         0.1640
     27 N6         -2.6723    5.7982   -0.4628 N.pl3     1 ATP        -0.4916
     28 N1         -2.1445    5.1522    1.7502 N.pl3     1 ATP        -0.4390
     29 C2         -1.3755    4.3143    2.6427 C.ar      1 ATP         0.5691
     30 N3         -0.5075    3.4292    2.2616 N.ar      1 ATP        -0.4283
     31 C4         -0.3667    3.3425    0.9070 C.ar      1 ATP         0.2226
     32 H5'1        2.8432    0.3119   -2.6398 H         1 ATP        -0.0393
     33 H5'2        1.2128   -0.0927   -2.0428 H         1 ATP        -0.0393
     34 H4'         3.8040   -0.1399   -0.4044 H         1 ATP        -0.0393
     35 H3'         1.6768   -1.7637    0.2732 H         1 ATP        -0.0393
     36 HO3'        2.2231   -1.2979    2.3952 H         1 ATP         0.2010
     37 H2'         0.0002   -0.0084   -0.0014 H         1 ATP        -0.0393
     38 HO2'       -0.1554   -0.9852    2.0577 H         1 ATP         0.2010
     39 H1'         1.7718    1.9211    1.6015 H         1 ATP        -0.0393
     40 H8          0.6089    2.4651   -2.2147 H         1 ATP         0.0000
     41 HN61       -2.5055    5.6680   -1.4503 H         1 ATP         0.2048
     42 HN62       -3.3462    6.4841   -0.1542 H         1 ATP         0.2048
     43 H2         -1.5932    4.4937    3.7066 H         1 ATP        -0.1292
     44 H44        -2.8098    5.8270    2.1160 H         1 ATP         0.2048
@<TRIPOS>BOND
     1    1    2 2
     2    1    3 1
     3    1    4 1
     4    1    8 1
     5    5    6 2
     6    5    7 1
     7    5    8 1
     8    5   12 1
     9    9   10 2
    10    9   11 1
    11    9   12 1
    12    9   13 1
    13   13   14 1
    14   14   15 1
    15   14   32 1
    16   14   33 1
    17   15   16 1
    18   15   17 1
    19   15   34 1
    20   16   21 1
    21   17   18 1
    22   17   19 1
    23   17   35 1
    24   18   36 1
    25   19   20 1
    26   19   21 1
    27   19   37 1
    28   20   38 1
    29   21   22 1
    30   21   39 1
    31   22   23 ar
    32   22   31 ar
    33   23   24 ar
    34   23   40 1
    35   24   25 ar
    36   25   26 ar
    37   25   31 ar
    38   26   27 1
    39   26   28 ar
    40   27   41 1
    41   27   42 1
    42   28   29 ar
    43   28   44 1
    44   29   30 ar
    45   29   43 1
    46   30   31 ar
@<TRIPOS>SUBSTRUCTURE
     1 ATP         1 GROUP 0 A     ****
@<TRIPOS>MOLECULE
[[[5-(6-amino-1,8-dihydropurine-6,8-diylium-7-id-9-yl)-3,4-dihydroxy-tetrahydrofuran-2-yl]methoxy-oxido-phosphoryl]oxy-oxido-phosphoryl] phosphate
   44    46     1     0     0
SMALL
USER_CHARGES

@<TRIPOS>ATOM
      1 PG          1.2718   -2.8797   -7.6761 P.3       1 ATP        -1.1921
      2 O1G         1.7562   -4.3219   -7.5702 O.co2     1 ATP         0.3195
      3 O2G        -0.2185   -2.6955   -7.4103 O.co2     1 ATP         0.3195
      4 O3G         1.7855   -2.1352   -8.9041 O.co2     1 ATP         0.3195
      5 PB          3.5943   -1.9266   -6.0786 P.3       1 ATP        -1.1062
      6 O1B         4.1839   -3.2802   -5.7504 O.co2     1 ATP         0.3195
      7 O2B         4.2144   -1.0371   -7.1329 O.co2     1 ATP         0.3195
      8 O3B         2.0063   -2.1121   -6.4146 O.3       1 ATP         0.4672
      9 PA          2.7413    0.3775   -4.4298 P.3       1 ATP        -1.1062
     10 O1A         1.2503    0.2253   -4.6379 O.co2     1 ATP         0.3195
     11 O2A         3.5211    1.4416   -5.1712 O.co2     1 ATP         0.3195
     12 O3A         3.4474   -1.0719   -4.6954 O.3       1 ATP         0.4672
     13 O5'         3.0213    0.5153   -2.8245 O.3       1 ATP         0.1618
     14 C5'         2.2816   -0.2918   -1.9206 C.3       1 ATP         0.1504
     15 C4'         2.7248    0.0226   -0.4980 C.3       1 ATP         0.1111
     16 O4'         2.4697    1.4219   -0.2462 O.3       1 ATP        -0.1436
     17 C3'         1.9404   -0.7419    0.5596 C.3       1 ATP         0.1111
     18 O3'         2.7418   -0.8086    1.7389 O.3       1 ATP        -0.2728
     19 C2'         0.7477    0.1630    0.7858 C.3       1 ATP         0.1111
     20 O2'         0.1373   -0.0577    2.0407 O.3       1 ATP        -0.2728
     21 C1'         1.3733    1.5427    0.6747 C.3       1 ATP         0.2693
     22 N9          0.4520    2.5240    0.1767 N.pl3     1 ATP        -0.3222
     23 C8          0.1798    2.8712   -1.2933 C.ar      1 ATP         0.1640
     24 N7         -0.7494    3.8400   -1.3610 N.2       1 ATP        -0.1640
     25 C5         -1.0173    4.0603   -0.0358 C.ar      1 ATP         0.0820
     26 C6         -2.0105    5.0717    0.4241 C.ar      1 ATP         0.1640
     27 N6         -2.6723    5.7982   -0.4628 N.pl3     1 ATP        -0.4916
     28 N1         -2.1445    5.1522    1.7502 N.pl3     1 ATP        -0.4390
     29 C2         -1.3755    4.3143    2.6427 C.ar      1 ATP         0.5691
     30 N3         -0.5075    3.4292    2.2616 N.ar      1 ATP        -0.4283
     31 C4         -0.3667    3.3425    0.9070 C.ar      1 ATP         0.2226
     32 H5'1        1.2163   -0.0770   -2.0471 H         1 ATP        -0.0393
     33 H5'2        2.4655   -1.3443   -2.1563 H         1 ATP        -0.0393
     34 H4'         3.8040   -0.1399   -0.4044 H         1 ATP        -0.0393
     35 H3'         1.6768   -1.7637    0.2732 H         1 ATP        -0.0393
     36 HO3'        2.2231   -1.2979    2.3952 H         1 ATP         0.2010
     37 H2'         0.0002   -0.0084   -0.0014 H         1 ATP        -0.0393
     38 HO2'       -0.6132    0.5577    2.1063 H         1 ATP         0.2010
     39 H1'         1.7718    1.9211    1.6015 H         1 ATP        -0.0393
     40 H8          0.6089    2.4651   -2.2147 H         1 ATP         0.0000
     41 HN61       -2.5055    5.6680   -1.4503 H         1 ATP         0.2048
     42 HN62       -3.3462    6.4841   -0.1542 H         1 ATP         0.2048
     43 H2         -1.5932    4.4937    3.7066 H         1 ATP        -0.1292
     44 H44        -2.8098    5.8270    2.1160 H         1 ATP         0.2048
@<TRIPOS>BOND
     1    1    2 2
     2    1    3 1
     3    1    4 1
     4    1    8 1
     5    5    6 2
     6    5    7 1
     7    5    8 1
     8    5   12 1
     9    9   10 2
    10    9   11 1
    11    9   12 1
    12    9   13 1
    13   13   14 1
    14   14   15 1
    15   14   32 1
    16   14   33 1
    17   15   16 1
    18   15   17 1
    19   15   34 1
    20   16   21 1
    21   17   18 1
    22   17   19 1
    23   17   35 1
    24   18   36 1
    25   19   20 1
    26   19   21 1
    27   19   37 1
    28   20   38 1
    29   21   22 1
    30   21   39 1
    31   22   23 ar
    32   22   31 ar
    33   23   24 ar
    34   23   40 1
    35   24   25 ar
    36   25   26 ar
    37   25   31 ar
    38   26   27 1
    39   26   28 ar
    40   27   41 1
    41   27   42 1
    42   28   29 ar
    43   28   44 1
    44   29   30 ar
    45   29   43 1
    46   30   31 ar
@<TRIPOS>SUBSTRUCTURE
     1 ATP         1 GROUP 0 A     ****
@<TRIPOS>MOLECULE
[[[5-(6-amino-1,8-dihydropurine-6,8-diylium-7-id-9-yl)-3,4-dihydroxy-tetrahydrofuran-2-yl]methoxy-oxido-phosphoryl]oxy-oxido-phosphoryl] phosphate
   44    46     1     0     0
SMALL
USER_CHARGES

@<TRIPOS>ATOM
      1 PG          5.0024   -0.9121   -8.4956 P.3       1 ATP        -1.1921
      2 O1G         3.7497   -1.1113   -9.3424 O.co2     1 ATP         0.3195
      3 O2G         5.7007    0.4264   -8.7107 O.co2     1 ATP         0.3195
      4 O3G         5.9427   -2.1127   -8.4764 O.co2     1 ATP         0.3195
      5 PB          3.5943   -1.9266   -6.0786 P.3       1 ATP        -1.1062
      6 O1B         2.2228   -2.0877   -6.6955 O.co2     1 ATP         0.3195
      7 O2B         4.4802   -3.1238   -5.8153 O.co2     1 ATP         0.3195
      8 O3B         4.4369   -0.8301   -6.9486 O.3       1 ATP         0.4672
      9 PA          2.7413    0.3775   -4.4298 P.3       1 ATP        -1.1062
     10 O1A         1.2503    0.2253   -4.6379 O.co2     1 ATP         0.3195
     11 O2A         3.5211    1.4416   -5.1712 O.co2     1 ATP         0.3195
     12 O3A         3.4474   -1.0719   -4.6954 O.3       1 ATP         0.4672
     13 O5'         3.0213    0.5153   -2.8245 O.3       1 ATP         0.1618
     14 C5'         2.2816   -0.2918   -1.9206 C.3       1 ATP         0.1504
     15 C4'         2.7248    0.0226   -0.4980 C.3       1 ATP         0.1111
     16 O4'         2.4697    1.4219   -0.2462 O.3       1 ATP        -0.1436
     17 C3'         1.9404   -0.7419    0.5596 C.3       1 ATP         0.1111
     18 O3'         2.7418   -0.8086    1.7389 O.3       1 ATP        -0.2728
     19 C2'         0.7477    0.1630    0.7858 C.3       1 ATP         0.1111
     20 O2'         0.1373   -0.0577    2.0407 O.3       1 ATP        -0.2728
     21 C1'         1.3733    1.5427    0.6747 C.3       1 ATP         0.2693
     22 N9          0.4520    2.5240    0.1767 N.pl3     1 ATP        -0.3222
     23 C8          0.1798    2.8712   -1.2933 C.ar      1 ATP         0.1640
     24 N7         -0.7494    3.8400   -1.3610 N.2       1 ATP        -0.1640
     25 C5         -1.0173    4.0603   -0.0358 C.ar      1 ATP         0.0820
     26 C6         -2.0105    5.0717    0.4241 C.ar      1 ATP         0.1640
     27 N6         -2.6723    5.7982   -0.4628 N.pl3     1 ATP        -0.4916
     28 N1         -2.1445    5.1522    1.7502 N.pl3     1 ATP        -0.4390
     29 C2         -1.3755    4.3143    2.6427 C.ar      1 ATP         0.5691
     30 N3         -0.5075    3.4292    2.2616 N.ar      1 ATP        -0.4283
     31 C4         -0.3667    3.3425    0.9070 C.ar      1 ATP         0.2226
     32 H5'1        1.2163   -0.0770   -2.0471 H         1 ATP        -0.0393
     33 H5'2        2.4655   -1.3443   -2.1563 H         1 ATP        -0.0393
     34 H4'         3.8040   -0.1399   -0.4044 H         1 ATP        -0.0393
     35 H3'         1.6768   -1.7637    0.2732 H         1 ATP        -0.0393
     36 HO3'        2.2231   -1.2979    2.3952 H         1 ATP         0.2010
     37 H2'         0.0002   -0.0084   -0.0014 H         1 ATP        -0.0393
     38 HO2'       -0.6132    0.5577    2.1063 H         1 ATP         0.2010
     39 H1'         1.7718    1.9211    1.6015 H         1 ATP        -0.0393
     40 H8          0.6089    2.4651   -2.2147 H         1 ATP         0.0000
     41 HN61       -2.5055    5.6680   -1.4503 H         1 ATP         0.2048
     42 HN62       -3.3462    6.4841   -0.1542 H         1 ATP         0.2048
     43 H2         -1.5932    4.4937    3.7066 H         1 ATP        -0.1292
     44 H44        -2.8098    5.8270    2.1160 H         1 ATP         0.2048
@<TRIPOS>BOND
     1    1    2 2
     2    1    3 1
     3    1    4 1
     4    1    8 1
     5    5    6 2
     6    5    7 1
     7    5    8 1
     8    5   12 1
     9    9   10 2
    10    9   11 1
    11    9   12 1
    12    9   13 1
    13   13   14 1
    14   14   15 1
    15   14   32 1
    16   14   33 1
    17   15   16 1
    18   15   17 1
    19   15   34 1
    20   16   21 1
    21   17   18 1
    22   17   19 1
    23   17   35 1
    24   18   36 1
    25   19   20 1
    26   19   21 1
    27   19   37 1
    28   20   38 1
    29   21   22 1
    30   21   39 1
    31   22   23 ar
    32   22   31 ar
    33   23   24 ar
    34   23   40 1
    35   24   25 ar
    36   25   26 ar
    37   25   31 ar
    38   26   27 1
    39   26   28 ar
    40   27   41 1
    41   27   42 1
    42   28   29 ar
    43   28   44 1
    44   29   30 ar
    45   29   43 1
    46   30   31 ar
@<TRIPOS>SUBSTRUCTURE
     1 ATP         1 GROUP 0 A     ****
@<TRIPOS>MOLECULE
[[[5-(6-amino-1,8-dihydropurine-6,8-diylium-7-id-9-yl)-3,4-dihydroxy-tetrahydrofuran-2-yl]methoxy-oxido-phosphoryl]oxy-oxido-phosphoryl] phosphate
   44    46     1     0     0
SMALL
USER_CHARGES

@<TRIPOS>ATOM
      1 PG          5.8686   -3.2861   -4.7245 P.3       1 ATP        -1.1921
      2 O1G         5.7000   -2.4015   -3.4937 O.co2     1 ATP         0.3195
      3 O2G         6.0562   -4.7673   -4.4137 O.co2     1 ATP         0.3195
      4 O3G         6.8414   -2.7362   -5.7624 O.co2     1 ATP         0.3195
      5 PB          3.5943   -1.9266   -6.0786 P.3       1 ATP        -1.1062
      6 O1B         4.5069   -1.1715   -7.0191 O.co2     1 ATP         0.3195
      7 O2B         2.2189   -2.3782   -6.5162 O.co2     1 ATP         0.3195
      8 O3B         4.4043   -3.2129   -5.4797 O.3       1 ATP         0.4672
      9 PA          2.7413    0.3775   -4.4298 P.3       1 ATP        -1.1062
     10 O1A         1.2503    0.2253   -4.6379 O.co2     1 ATP         0.3195
     11 O2A         3.5211    1.4416   -5.1712 O.co2     1 ATP         0.3195
     12 O3A         3.4474   -1.0719   -4.6954 O.3       1 ATP         0.4672
     13 O5'         3.0213    0.5153   -2.8245 O.3       1 ATP         0.1618
     14 C5'         2.2816   -0.2918   -1.9206 C.3       1 ATP         0.1504
     15 C4'         2.7248    0.0226   -0.4980 C.3       1 ATP         0.1111
     16 O4'         2.4697    1.4219   -0.2462 O.3       1 ATP        -0.1436
     17 C3'         1.9404   -0.7419    0.5596 C.3       1 ATP         0.1111
     18 O3'         2.7418   -0.8086    1.7389 O.3       1 ATP        -0.2728
     19 C2'         0.7477    0.1630    0.7858 C.3       1 ATP         0.1111
     20 O2'         0.1373   -0.0577    2.0407 O.3       1 ATP        -0.2728
     21 C1'         1.3733    1.5427    0.6747 C.3       1 ATP         0.2693
     22 N9          0.4520    2.5240    0.1767 N.pl3     1 ATP        -0.3222
     23 C8          0.1798    2.8712   -1.2933 C.ar      1 ATP         0.1640
     24 N7         -0.7494    3.8400   -1.3610 N.2       1 ATP        -0.1640
     25 C5         -1.0173    4.0603   -0.0358 C.ar      1 ATP         0.0820
     26 C6         -2.0105    5.0717    0.4241 C.ar      1 ATP         0.1640
     27 N6         -2.6723    5.7982   -0.4628 N.pl3     1 ATP        -0.4916
     28 N1         -2.1445    5.1522    1.7502 N.pl3     1 ATP        -0.4390
     29 C2         -1.3755    4.3143    2.6427 C.ar      1 ATP         0.5691
     30 N3         -0.5075    3.4292    2.2616 N.ar      1 ATP        -0.4283
     31 C4         -0.3667    3.3425    0.9070 C.ar      1 ATP         0.2226
     32 H5'1        1.2163   -0.0770   -2.0471 H         1 ATP        -0.0393
     33 H5'2        2.4655   -1.3443   -2.1563 H         1 ATP        -0.0393
     34 H4'         3.8040   -0.1399   -0.4044 H         1 ATP        -0.0393
     35 H3'         1.6768   -1.7637    0.2732 H         1 ATP        -0.0393
     36 HO3'        2.2231   -1.2979    2.3952 H         1 ATP         0.2010
     37 H2'         0.0002   -0.0084   -0.0014 H         1 ATP        -0.0393
     38 HO2'       -0.6132    0.5577    2.1063 H         1 ATP         0.2010
     39 H1'         1.7718    1.9211    1.6015 H         1 ATP        -0.0393
     40 H8          0.6089    2.4651   -2.2147 H         1 ATP         0.0000
     41 HN61       -2.5055    5.6680   -1.4503 H         1 ATP         0.2048
     42 HN62       -3.3462    6.4841   -0.1542 H         1 ATP         0.2048
     43 H2         -1.5932    4.4937    3.7066 H         1 ATP        -0.1292
     44 H44        -2.8098    5.8270    2.1160 H         1 ATP         0.2048
@<TRIPOS>BOND
     1    1    2 2
     2    1    3 1
     3    1    4 1
     4    1    8 1
     5    5    6 2
     6    5    7 1
     7    5    8 1
     8    5   12 1
     9    9   10 2
    10    9   11 1
    11    9   12 1
    12    9   13 1
    13   13   14 1
    14   14   15 1
    15   14   32 1
    16   14   33 1
    17   15   16 1
    18   15   17 1
    19   15   34 1
    20   16   21 1
    21   17   18 1
    22   17   19 1
    23   17   35 1
    24   18   36 1
    25   19   20 1
    26   19   21 1
    27   19   37 1
    28   20   38 1
    29   21   22 1
    30   21   39 1
    31   22   23 ar
    32   22   31 ar
    33   23   24 ar
    34   23   40 1
    35   24   25 ar
    36   25   26 ar
    37   25   31 ar
    38   26   27 1
    39   26   28 ar
    40   27   41 1
    41   27   42 1
    42   28   29 ar
    43   28   44 1
    44   29   30 ar
    45   29   43 1
    46   30   31 ar
@<TRIPOS>SUBSTRUCTURE
     1 ATP         1 GROUP 0 A     ****
@<TRIPOS>MOLECULE
[[[5-(6-amino-1,8-dihydropurine-6,8-diylium-7-id-9-yl)-3,4-dihydroxy-tetrahydrofuran-2-yl]methoxy-oxido-phosphoryl]oxy-oxido-phosphoryl] phosphate
   44    46     1     0     0
SMALL
USER_CHARGES

@<TRIPOS>ATOM
      1 PG          7.3145   -0.2736   -5.8327 P.3       1 ATP        -1.1921
      2 O1G         7.7419   -1.6181   -6.4120 O.co2     1 ATP         0.3195
      3 O2G         7.3301    0.8764   -6.8341 O.co2     1 ATP         0.3195
      4 O3G         7.9510    0.0592   -4.4873 O.co2     1 ATP         0.3195
      5 PB          4.9946   -1.5400   -4.4659 P.3       1 ATP        -1.1062
      6 O1B         5.1660   -2.9346   -5.0255 O.co2     1 ATP         0.3195
      7 O2B         5.3930   -1.2121   -3.0442 O.co2     1 ATP         0.3195
      8 O3B         5.7178   -0.4764   -5.4733 O.3       1 ATP         0.4672
      9 PA          2.7413    0.3775   -4.4298 P.3       1 ATP        -1.1062
     10 O1A         1.2503    0.2253   -4.6379 O.co2     1 ATP         0.3195
     11 O2A         3.5211    1.4416   -5.1712 O.co2     1 ATP         0.3195
     12 O3A         3.4474   -1.0719   -4.6954 O.3       1 ATP         0.4672
     13 O5'         3.0213    0.5153   -2.8245 O.3       1 ATP         0.1618
     14 C5'         2.2816   -0.2918   -1.9206 C.3       1 ATP         0.1504
     15 C4'         2.7248    0.0226   -0.4980 C.3       1 ATP         0.1111
     16 O4'         2.4697    1.4219   -0.2462 O.3       1 ATP        -0.1436
     17 C3'         1.9404   -0.7419    0.5596 C.3       1 ATP         0.1111
     18 O3'         2.7418   -0.8086    1.7389 O.3       1 ATP        -0.2728
     19 C2'         0.7477    0.1630    0.7858 C.3       1 ATP         0.1111
     20 O2'         0.1373   -0.0577    2.0407 O.3       1 ATP        -0.2728
     21 C1'         1.3733    1.5427    0.6747 C.3       1 ATP         0.2693
     22 N9          0.4520    2.5240    0.1767 N.pl3     1 ATP        -0.3222
     23 C8          0.1798    2.8712   -1.2933 C.ar      1 ATP         0.1640
     24 N7         -0.7494    3.8400   -1.3610 N.2       1 ATP        -0.1640
     25 C5         -1.0173    4.0603   -0.0358 C.ar      1 ATP         0.0820
     26 C6         -2.0105    5.0717    0.4241 C.ar      1 ATP         0.1640
     27 N6         -2.6723    5.7982   -0.4628 N.pl3     1 ATP        -0.4916
     28 N1         -2.1445    5.1522    1.7502 N.pl3     1 ATP        -0.4390
     29 C2         -1.3755    4.3143    2.6427 C.ar      1 ATP         0.5691
     30 N3         -0.5075    3.4292    2.2616 N.ar      1 ATP        -0.4283
     31 C4         -0.3667    3.3425    0.9070 C.ar      1 ATP         0.2226
     32 H5'1        1.2163   -0.0770   -2.0471 H         1 ATP        -0.0393
     33 H5'2        2.4655   -1.3443   -2.1563 H         1 ATP        -0.0393
     34 H4'         3.8040   -0.1399   -0.4044 H         1 ATP        -0.0393
     35 H3'         1.6768   -1.7637    0.2732 H         1 ATP        -0.0393
     36 HO3'        2.2231   -1.2979    2.3952 H         1 ATP         0.2010
     37 H2'         0.0002   -0.0084   -0.0014 H         1 ATP        -0.0393
     38 HO2'       -0.6132    0.5577    2.1063 H         1 ATP         0.2010
     39 H1'         1.7718    1.9211    1.6015 H         1 ATP        -0.0393
     40 H8          0.6089    2.4651   -2.2147 H         1 ATP         0.0000
     41 HN61       -2.5055    5.6680   -1.4503 H         1 ATP         0.2048
     42 HN62       -3.3462    6.4841   -0.1542 H         1 ATP         0.2048
     43 H2         -1.5932    4.4937    3.7066 H         1 ATP        -0.1292
     44 H44        -2.8098    5.8270    2.1160 H         1 ATP         0.2048
@<TRIPOS>BOND
     1    1    2 2
     2    1    3 1
     3    1    4 1
     4    1    8 1
     5    5    6 2
     6    5    7 1
     7    5    8 1
     8    5   12 1
     9    9   10 2
    10    9   11 1
    11    9   12 1
    12    9   13 1
    13   13   14 1
    14   14   15 1
    15   14   32 1
    16   14   33 1
    17   15   16 1
    18   15   17 1
    19   15   34 1
    20   16   21 1
    21   17   18 1
    22   17   19 1
    23   17   35 1
    24   18   36 1
    25   19   20 1
    26   19   21 1
    27   19   37 1
    28   20   38 1
    29   21   22 1
    30   21   39 1
    31   22   23 ar
    32   22   31 ar
    33   23   24 ar
    34   23   40 1
    35   24   25 ar
    36   25   26 ar
    37   25   31 ar
    38   26   27 1
    39   26   28 ar
    40   27   41 1
    41   27   42 1
    42   28   29 ar
    43   28   44 1
    44   29   30 ar
    45   29   43 1
    46   30   31 ar
@<TRIPOS>SUBSTRUCTURE
     1 ATP         1 GROUP 0 A     ****
@<TRIPOS>MOLECULE
[[[5-(6-amino-1,8-dihydropurine-6,8-diylium-7-id-9-yl)-3,4-dihydroxy-tetrahydrofuran-2-yl]methoxy-oxido-phosphoryl]oxy-oxido-phosphoryl] phosphate
   44    46     1     0     0
SMALL
USER_CHARGES

@<TRIPOS>ATOM
      1 PG         -2.9763   -2.3650   -4.9036 P.3       1 ATP        -1.1921
      2 O1G        -4.1284   -2.0997   -3.9402 O.co2     1 ATP         0.3195
      3 O2G        -2.7403   -1.2554   -5.9227 O.co2     1 ATP         0.3195
      4 O3G        -2.9656   -3.7708   -5.4949 O.co2     1 ATP         0.3195
      5 PB         -1.2350   -3.2534   -2.6602 P.3       1 ATP        -1.1062
      6 O1B        -2.1909   -2.9486   -1.5285 O.co2     1 ATP         0.3195
      7 O2B        -1.0057   -4.6722   -3.1310 O.co2     1 ATP         0.3195
      8 O3B        -1.6327   -2.3299   -3.9478 O.3       1 ATP         0.4672
      9 PA          1.5549   -2.4565   -3.2403 P.3       1 ATP        -1.1062
     10 O1A         1.2565   -1.5283   -4.3975 O.co2     1 ATP         0.3195
     11 O2A         2.1032   -3.8456   -3.4846 O.co2     1 ATP         0.3195
     12 O3A         0.2110   -2.5768   -2.3187 O.3       1 ATP         0.4672
     13 O5'         2.5245   -1.6648   -2.1878 O.3       1 ATP         0.1618
     14 C5'         2.2816   -0.2918   -1.9206 C.3       1 ATP         0.1504
     15 C4'         2.7248    0.0226   -0.4980 C.3       1 ATP         0.1111
     16 O4'         2.4697    1.4219   -0.2462 O.3       1 ATP        -0.1436
     17 C3'         1.9404   -0.7419    0.5596 C.3       1 ATP         0.1111
     18 O3'         2.7418   -0.8086    1.7389 O.3       1 ATP        -0.2728
     19 C2'         0.7477    0.1630    0.7858 C.3       1 ATP         0.1111
     20 O2'         0.1373   -0.0577    2.0407 O.3       1 ATP        -0.2728
     21 C1'         1.3733    1.5427    0.6747 C.3       1 ATP         0.2693
     22 N9          0.4520    2.5240    0.1767 N.pl3     1 ATP        -0.3222
     23 C8          0.1798    2.8712   -1.2933 C.ar      1 ATP         0.1640
     24 N7         -0.7494    3.8400   -1.3610 N.2       1 ATP        -0.1640
     25 C5         -1.0173    4.0603   -0.0358 C.ar      1 ATP         0.0820
     26 C6         -2.0105    5.0717    0.4241 C.ar      1 ATP         0.1640
     27 N6         -2.6723    5.7982   -0.4628 N.pl3     1 ATP        -0.4916
     28 N1         -2.1445    5.1522    1.7502 N.pl3     1 ATP        -0.4390
     29 C2         -1.3755    4.3143    2.6427 C.ar      1 ATP         0.5691
     30 N3         -0.5075    3.4292    2.2616 N.ar      1 ATP        -0.4283
     31 C4         -0.3667    3.3425    0.9070 C.ar      1 ATP         0.2226
     32 H5'1        2.8432    0.3119   -2.6398 H         1 ATP        -0.0393
     33 H5'2        1.2128   -0.0927   -2.0428 H         1 ATP        -0.0393
     34 H4'         3.8040   -0.1399   -0.4044 H         1 ATP        -0.0393
     35 H3'         1.6768   -1.7637    0.2732 H         1 ATP        -0.0393
     36 HO3'        2.2231   -1.2979    2.3952 H         1 ATP         0.2010
     37 H2'         0.0002   -0.0084   -0.0014 H         1 ATP        -0.0393
     38 HO2'       -0.6132    0.5577    2.1063 H         1 ATP         0.2010
     39 H1'         1.7718    1.9211    1.6015 H         1 ATP        -0.0393
     40 H8          0.6089    2.4651   -2.2147 H         1 ATP         0.0000
     41 HN61       -2.5055    5.6680   -1.4503 H         1 ATP         0.2048
     42 HN62       -3.3462    6.4841   -0.1542 H         1 ATP         0.2048
     43 H2         -1.5932    4.4937    3.7066 H         1 ATP        -0.1292
     44 H44        -2.8098    5.8270    2.1160 H         1 ATP         0.2048
@<TRIPOS>BOND
     1    1    2 2
     2    1    3 1
     3    1    4 1
     4    1    8 1
     5    5    6 2
     6    5    7 1
     7    5    8 1
     8    5   12 1
     9    9   10 2
    10    9   11 1
    11    9   12 1
    12    9   13 1
    13   13   14 1
    14   14   15 1
    15   14   32 1
    16   14   33 1
    17   15   16 1
    18   15   17 1
    19   15   34 1
    20   16   21 1
    21   17   18 1
    22   17   19 1
    23   17   35 1
    24   18   36 1
    25   19   20 1
    26   19   21 1
    27   19   37 1
    28   20   38 1
    29   21   22 1
    30   21   39 1
    31   22   23 ar
    32   22   31 ar
    33   23   24 ar
    34   23   40 1
    35   24   25 ar
    36   25   26 ar
    37   25   31 ar
    38   26   27 1
    39   26   28 ar
    40   27   41 1
    41   27   42 1
    42   28   29 ar
    43   28   44 1
    44   29   30 ar
    45   29   43 1
    46   30   31 ar
@<TRIPOS>SUBSTRUCTURE
     1 ATP         1 GROUP 0 A     ****
@<TRIPOS>MOLECULE
[[[5-(6-amino-1,8-dihydropurine-6,8-diylium-7-id-9-yl)-3,4-dihydroxy-tetrahydrofuran-2-yl]methoxy-oxido-phosphoryl]oxy-oxido-phosphoryl] phosphate
   44    46     1     0     0
SMALL
USER_CHARGES

@<TRIPOS>ATOM
      1 PG          5.5809    0.0800   -7.5608 P.3       1 ATP        -1.1921
      2 O1G         4.5328    0.7093   -8.4727 O.co2     1 ATP         0.3195
      3 O2G         6.5785    1.0713   -6.9712 O.co2     1 ATP         0.3195
      4 O3G         6.2154   -1.1896   -8.1190 O.co2     1 ATP         0.3195
      5 PB          3.4913   -1.5254   -6.1787 P.3       1 ATP        -1.1062
      6 O1B         2.2876   -0.9433   -6.8857 O.co2     1 ATP         0.3195
      7 O2B         4.0210   -2.8967   -6.5339 O.co2     1 ATP         0.3195
      8 O3B         4.7189   -0.4504   -6.2587 O.3       1 ATP         0.4672
      9 PA          2.1375   -2.2725   -3.6560 P.3       1 ATP        -1.1062
     10 O1A         2.4976   -3.7422   -3.6687 O.co2     1 ATP         0.3195
     11 O2A         0.7481   -1.8133   -4.0418 O.co2     1 ATP         0.3195
     12 O3A         3.2287   -1.4684   -4.5683 O.3       1 ATP         0.4672
     13 O5'         2.5245   -1.6648   -2.1878 O.3       1 ATP         0.1618
     14 C5'         2.2816   -0.2918   -1.9206 C.3       1 ATP         0.1504
     15 C4'         2.7248    0.0226   -0.4980 C.3       1 ATP         0.1111
     16 O4'         2.4697    1.4219   -0.2462 O.3       1 ATP        -0.1436
     17 C3'         1.9404   -0.7419    0.5596 C.3       1 ATP         0.1111
     18 O3'         2.7418   -0.8086    1.7389 O.3       1 ATP        -0.2728
     19 C2'         0.7477    0.1630    0.7858 C.3       1 ATP         0.1111
     20 O2'         0.1373   -0.0577    2.0407 O.3       1 ATP        -0.2728
     21 C1'         1.3733    1.5427    0.6747 C.3       1 ATP         0.2693
     22 N9          0.4520    2.5240    0.1767 N.pl3     1 ATP        -0.3222
     23 C8          0.1798    2.8712   -1.2933 C.ar      1 ATP         0.1640
     24 N7         -0.7494    3.8400   -1.3610 N.2       1 ATP        -0.1640
     25 C5         -1.0173    4.0603   -0.0358 C.ar      1 ATP         0.0820
     26 C6         -2.0105    5.0717    0.4241 C.ar      1 ATP         0.1640
     27 N6         -2.6723    5.7982   -0.4628 N.pl3     1 ATP        -0.4916
     28 N1         -2.1445    5.1522    1.7502 N.pl3     1 ATP        -0.4390
     29 C2         -1.3755    4.3143    2.6427 C.ar      1 ATP         0.5691
     30 N3         -0.5075    3.4292    2.2616 N.ar      1 ATP        -0.4283
     31 C4         -0.3667    3.3425    0.9070 C.ar      1 ATP         0.2226
     32 H5'1        2.8432    0.3119   -2.6398 H         1 ATP        -0.0393
     33 H5'2        1.2128   -0.0927   -2.0428 H         1 ATP        -0.0393
     34 H4'         3.8040   -0.1399   -0.4044 H         1 ATP        -0.0393
     35 H3'         1.6768   -1.7637    0.2732 H         1 ATP        -0.0393
     36 HO3'        2.2231   -1.2979    2.3952 H         1 ATP         0.2010
     37 H2'         0.0002   -0.0084   -0.0014 H         1 ATP        -0.0393
     38 HO2'       -0.6132    0.5577    2.1063 H         1 ATP         0.2010
     39 H1'         1.7718    1.9211    1.6015 H         1 ATP        -0.0393
     40 H8          0.6089    2.4651   -2.2147 H         1 ATP         0.0000
     41 HN61       -2.5055    5.6680   -1.4503 H         1 ATP         0.2048
     42 HN62       -3.3462    6.4841   -0.1542 H         1 ATP         0.2048
     43 H2         -1.5932    4.4937    3.7066 H         1 ATP        -0.1292
     44 H44        -2.8098    5.8270    2.1160 H         1 ATP         0.2048
@<TRIPOS>BOND
     1    1    2 2
     2    1    3 1
     3    1    4 1
     4    1    8 1
     5    5    6 2
     6    5    7 1
     7    5    8 1
     8    5   12 1
     9    9   10 2
    10    9   11 1
    11    9   12 1
    12    9   13 1
    13   13   14 1
    14   14   15 1
    15   14   32 1
    16   14   33 1
    17   15   16 1
    18   15   17 1
    19   15   34 1
    20   16   21 1
    21   17   18 1
    22   17   19 1
    23   17   35 1
    24   18   36 1
    25   19   20 1
    26   19   21 1
    27   19   37 1
    28   20   38 1
    29   21   22 1
    30   21   39 1
    31   22   23 ar
    32   22   31 ar
    33   23   24 ar
    34   23   40 1
    35   24   25 ar
    36   25   26 ar
    37   25   31 ar
    38   26   27 1
    39   26   28 ar
    40   27   41 1
    41   27   42 1
    42   28   29 ar
    43   28   44 1
    44   29   30 ar
    45   29   43 1
    46   30   31 ar
@<TRIPOS>SUBSTRUCTURE
     1 ATP         1 GROUP 0 A     ****
@<TRIPOS>MOLECULE
[[[5-(6-amino-1,8-dihydropurine-6,8-diylium-7-id-9-yl)-3,4-dihydroxy-tetrahydrofuran-2-yl]methoxy-oxido-phosphoryl]oxy-oxido-phosphoryl] phosphate
   44    46     1     0     0
SMALL
USER_CHARGES

@<TRIPOS>ATOM
      1 PG          2.6489   -4.8604   -3.8718 P.3       1 ATP        -1.1921
      2 O1G         1.4842   -3.9310   -4.1967 O.co2     1 ATP         0.3195
      3 O2G         2.6247   -6.1863   -4.6248 O.co2     1 ATP         0.3195
      4 O3G         2.9482   -4.9919   -2.3821 O.co2     1 ATP         0.3195
      5 PB          4.5795   -2.6078   -4.1006 P.3       1 ATP        -1.1062
      6 O1B         4.7789   -2.5268   -2.6035 O.co2     1 ATP         0.3195
      7 O2B         5.7059   -2.2913   -5.0589 O.co2     1 ATP         0.3195
      8 O3B         3.9711   -4.0780   -4.4713 O.3       1 ATP         0.4672
      9 PA          3.0683   -0.0853   -4.4294 P.3       1 ATP        -1.1062
     10 O1A         1.6217    0.2192   -4.7522 O.co2     1 ATP         0.3195
     11 O2A         4.1890    0.5887   -5.1908 O.co2     1 ATP         0.3195
     12 O3A         3.2815   -1.7036   -4.5041 O.3       1 ATP         0.4672
     13 O5'         3.2903    0.1346   -2.8241 O.3       1 ATP         0.1618
     14 C5'         2.2816   -0.2918   -1.9206 C.3       1 ATP         0.1504
     15 C4'         2.7248    0.0226   -0.4980 C.3       1 ATP         0.1111
     16 O4'         2.4697    1.4219   -0.2462 O.3       1 ATP        -0.1436
     17 C3'         1.9404   -0.7419    0.5596 C.3       1 ATP         0.1111
     18 O3'         2.7418   -0.8086    1.7389 O.3       1 ATP        -0.2728
     19 C2'         0.7477    0.1630    0.7858 C.3       1 ATP         0.1111
     20 O2'         0.1373   -0.0577    2.0407 O.3       1 ATP        -0.2728
     21 C1'         1.3733    1.5427    0.6747 C.3       1 ATP         0.2693
     22 N9          0.4520    2.5240    0.1767 N.pl3     1 ATP        -0.3222
     23 C8          0.1798    2.8712   -1.2933 C.ar      1 ATP         0.1640
     24 N7         -0.7494    3.8400   -1.3610 N.2       1 ATP        -0.1640
     25 C5         -1.0173    4.0603   -0.0358 C.ar      1 ATP         0.0820
     26 C6         -2.0105    5.0717    0.4241 C.ar      1 ATP         0.1640
     27 N6         -2.6723    5.7982   -0.4628 N.pl3     1 ATP        -0.4916
     28 N1         -2.1445    5.1522    1.7502 N.pl3     1 ATP        -0.4390
     29 C2         -1.3755    4.3143    2.6427 C.ar      1 ATP         0.5691
     30 N3         -0.5075    3.4292    2.2616 N.ar      1 ATP        -0.4283
     31 C4         -0.3667    3.3425    0.9070 C.ar      1 ATP         0.2226
     32 H5'1        1.3514    0.2330   -2.1577 H         1 ATP        -0.0393
     33 H5'2        2.1280   -1.3678   -2.0460 H         1 ATP        -0.0393
     34 H4'         3.8040   -0.1399   -0.4044 H         1 ATP        -0.0393
     35 H3'         1.6768   -1.7637    0.2732 H         1 ATP        -0.0393
     36 HO3'        2.2231   -1.2979    2.3952 H         1 ATP         0.2010
     37 H2'         0.0002   -0.0084   -0.0014 H         1 ATP        -0.0393
     38 HO2'       -0.6132    0.5577    2.1063 H         1 ATP         0.2010
     39 H1'         1.7718    1.9211    1.6015 H         1 ATP        -0.0393
     40 H8          0.6089    2.4651   -2.2147 H         1 ATP         0.0000
     41 HN61       -2.5055    5.6680   -1.4503 H         1 ATP         0.2048
     42 HN62       -3.3462    6.4841   -0.1542 H         1 ATP         0.2048
     43 H2         -1.5932    4.4937    3.7066 H         1 ATP        -0.1292
     44 H44        -2.8098    5.8270    2.1160 H         1 ATP         0.2048
@<TRIPOS>BOND
     1    1    2 2
     2    1    3 1
     3    1    4 1
     4    1    8 1
     5    5    6 2
     6    5    7 1
     7    5    8 1
     8    5   12 1
     9    9   10 2
    10    9   11 1
    11    9   12 1
    12    9   13 1
    13   13   14 1
    14   14   15 1
    15   14   32 1
    16   14   33 1
    17   15   16 1
    18   15   17 1
    19   15   34 1
    20   16   21 1
    21   17   18 1
    22   17   19 1
    23   17   35 1
    24   18   36 1
    25   19   20 1
    26   19   21 1
    27   19   37 1
    28   20   38 1
    29   21   22 1
    30   21   39 1
    31   22   23 ar
    32   22   31 ar
    33   23   24 ar
    34   23   40 1
    35   24   25 ar
    36   25   26 ar
    37   25   31 ar
    38   26   27 1
    39   26   28 ar
    40   27   41 1
    41   27   42 1
    42   28   29 ar
    43   28   44 1
    44   29   30 ar
    45   29   43 1
    46   30   31 ar
@<TRIPOS>SUBSTRUCTURE
     1 ATP         1 GROUP 0 A     ****
@<TRIPOS>MOLECULE
[[[5-(6-amino-1,8-dihydropurine-6,8-diylium-7-id-9-yl)-3,4-dihydroxy-tetrahydrofuran-2-yl]methoxy-oxido-phosphoryl]oxy-oxido-phosphoryl] phosphate
   44    46     1     0     0
SMALL
USER_CHARGES

@<TRIPOS>ATOM
      1 PG          3.1917   -5.1285   -5.8860 P.3       1 ATP        -1.1921
      2 O1G         4.2928   -5.0210   -6.9357 O.co2     1 ATP         0.3195
      3 O2G         3.5292   -6.0409   -4.7115 O.co2     1 ATP         0.3195
      4 O3G         1.7957   -5.3405   -6.4624 O.co2     1 ATP         0.3195
      5 PB          2.7996   -2.1791   -5.9183 P.3       1 ATP        -1.1062
      6 O1B         3.9305   -1.8345   -6.8617 O.co2     1 ATP         0.3195
      7 O2B         1.3609   -2.1708   -6.3844 O.co2     1 ATP         0.3195
      8 O3B         3.1180   -3.6215   -5.2203 O.3       1 ATP         0.4672
      9 PA          2.7413    0.3775   -4.4298 P.3       1 ATP        -1.1062
     10 O1A         1.2903    0.7205   -4.6874 O.co2     1 ATP         0.3195
     11 O2A         3.8475    1.0697   -5.1962 O.co2     1 ATP         0.3195
     12 O3A         2.9232   -1.2384   -4.5897 O.3       1 ATP         0.4672
     13 O5'         3.0213    0.5153   -2.8245 O.3       1 ATP         0.1618
     14 C5'         2.2816   -0.2918   -1.9206 C.3       1 ATP         0.1504
     15 C4'         2.7248    0.0226   -0.4980 C.3       1 ATP         0.1111
     16 O4'         2.4697    1.4219   -0.2462 O.3       1 ATP        -0.1436
     17 C3'         1.9404   -0.7419    0.5596 C.3       1 ATP         0.1111
     18 O3'         2.7418   -0.8086    1.7389 O.3       1 ATP        -0.2728
     19 C2'         0.7477    0.1630    0.7858 C.3       1 ATP         0.1111
     20 O2'         0.1373   -0.0577    2.0407 O.3       1 ATP        -0.2728
     21 C1'         1.3733    1.5427    0.6747 C.3       1 ATP         0.2693
     22 N9          0.4520    2.5240    0.1767 N.pl3     1 ATP        -0.3222
     23 C8          0.1798    2.8712   -1.2933 C.ar      1 ATP         0.1640
     24 N7         -0.7494    3.8400   -1.3610 N.2       1 ATP        -0.1640
     25 C5         -1.0173    4.0603   -0.0358 C.ar      1 ATP         0.0820
     26 C6         -2.0105    5.0717    0.4241 C.ar      1 ATP         0.1640
     27 N6         -2.6723    5.7982   -0.4628 N.pl3     1 ATP        -0.4916
     28 N1         -2.1445    5.1522    1.7502 N.pl3     1 ATP        -0.4390
     29 C2         -1.3755    4.3143    2.6427 C.ar      1 ATP         0.5691
     30 N3         -0.5075    3.4292    2.2616 N.ar      1 ATP        -0.4283
     31 C4         -0.3667    3.3425    0.9070 C.ar      1 ATP         0.2226
     32 H5'1        1.2163   -0.0770   -2.0471 H         1 ATP        -0.0393
     33 H5'2        2.4655   -1.3443   -2.1563 H         1 ATP        -0.0393
     34 H4'         3.8040   -0.1399   -0.4044 H         1 ATP        -0.0393
     35 H3'         1.6768   -1.7637    0.2732 H         1 ATP        -0.0393
     36 HO3'        2.2231   -1.2979    2.3952 H         1 ATP         0.2010
     37 H2'         0.0002   -0.0084   -0.0014 H         1 ATP        -0.0393
     38 HO2'       -0.6132    0.5577    2.1063 H         1 ATP         0.2010
     39 H1'         1.7718    1.9211    1.6015 H         1 ATP        -0.0393
     40 H8          0.6089    2.4651   -2.2147 H         1 ATP         0.0000
     41 HN61       -2.5055    5.6680   -1.4503 H         1 ATP         0.2048
     42 HN62       -3.3462    6.4841   -0.1542 H         1 ATP         0.2048
     43 H2         -1.5932    4.4937    3.7066 H         1 ATP        -0.1292
     44 H44        -2.8098    5.8270    2.1160 H         1 ATP         0.2048
@<TRIPOS>BOND
     1    1    2 2
     2    1    3 1
     3    1    4 1
     4    1    8 1
     5    5    6 2
     6    5    7 1
     7    5    8 1
     8    5   12 1
     9    9   10 2
    10    9   11 1
    11    9   12 1
    12    9   13 1
    13   13   14 1
    14   14   15 1
    15   14   32 1
    16   14   33 1
    17   15   16 1
    18   15   17 1
    19   15   34 1
    20   16   21 1
    21   17   18 1
    22   17   19 1
    23   17   35 1
    24   18   36 1
    25   19   20 1
    26   19   21 1
    27   19   37 1
    28   20   38 1
    29   21   22 1
    30   21   39 1
    31   22   23 ar
    32   22   31 ar
    33   23   24 ar
    34   23   40 1
    35   24   25 ar
    36   25   26 ar
    37   25   31 ar
    38   26   27 1
    39   26   28 ar
    40   27   41 1
    41   27   42 1
    42   28   29 ar
    43   28   44 1
    44   29   30 ar
    45   29   43 1
    46   30   31 ar
@<TRIPOS>SUBSTRUCTURE
     1 ATP         1 GROUP 0 A     ****
@<TRIPOS>MOLECULE
[[[5-(6-amino-1,8-dihydropurine-6,8-diylium-7-id-9-yl)-3,4-dihydroxy-tetrahydrofuran-2-yl]methoxy-oxido-phosphoryl]oxy-oxido-phosphoryl] phosphate
   44    46     1     0     0
SMALL
USER_CHARGES

@<TRIPOS>ATOM
      1 PG          0.2596    3.8332   -4.6415 P.3       1 ATP        -1.1921
      2 O1G         1.0213    4.6628   -5.6698 O.co2     1 ATP         0.3195
      3 O2G        -1.1289    4.3672   -4.3062 O.co2     1 ATP         0.3195
      4 O3G         1.0864    3.4313   -3.4246 O.co2     1 ATP         0.3195
      5 PB          1.0152    1.3151   -6.0352 P.3       1 ATP        -1.1062
      6 O1B         0.2408    0.0935   -6.4773 O.co2     1 ATP         0.3195
      7 O2B         1.9552    2.0307   -6.9795 O.co2     1 ATP         0.3195
      8 O3B        -0.0309    2.4031   -5.4098 O.3       1 ATP         0.4672
      9 PA          3.0683   -0.0853   -4.4294 P.3       1 ATP        -1.1062
     10 O1A         4.2833    0.4538   -5.1525 O.co2     1 ATP         0.3195
     11 O2A         2.5798   -1.4950   -4.6828 O.co2     1 ATP         0.3195
     12 O3A         1.8276    0.9511   -4.6666 O.3       1 ATP         0.4672
     13 O5'         3.2903    0.1346   -2.8241 O.3       1 ATP         0.1618
     14 C5'         2.2816   -0.2918   -1.9206 C.3       1 ATP         0.1504
     15 C4'         2.7248    0.0226   -0.4980 C.3       1 ATP         0.1111
     16 O4'         2.4697    1.4219   -0.2462 O.3       1 ATP        -0.1436
     17 C3'         1.9404   -0.7419    0.5596 C.3       1 ATP         0.1111
     18 O3'         2.7418   -0.8086    1.7389 O.3       1 ATP        -0.2728
     19 C2'         0.7477    0.1630    0.7858 C.3       1 ATP         0.1111
     20 O2'         0.1373   -0.0577    2.0407 O.3       1 ATP        -0.2728
     21 C1'         1.3733    1.5427    0.6747 C.3       1 ATP         0.2693
     22 N9          0.4520    2.5240    0.1767 N.pl3     1 ATP        -0.3222
     23 C8         -1.0247    2.3053   -0.1800 C.ar      1 ATP         0.1640
     24 N7         -1.5580    3.4612   -0.6116 N.2       1 ATP        -0.1640
     25 C5         -0.4873    4.3110   -0.5222 C.ar      1 ATP         0.0820
     26 C6         -0.5728    5.7505   -0.8981 C.ar      1 ATP         0.1640
     27 N6         -1.7163    6.2514   -1.3385 N.pl3     1 ATP        -0.4916
     28 N1          0.5667    6.4301   -0.7475 N.pl3     1 ATP        -0.4390
     29 C2          1.7697    5.7952   -0.2579 C.ar      1 ATP         0.5691
     30 N3          1.8633    4.5450    0.0742 N.ar      1 ATP        -0.4283
     31 C4          0.7014    3.8457   -0.0776 C.ar      1 ATP         0.2226
     32 H5'1        1.3514    0.2330   -2.1577 H         1 ATP        -0.0393
     33 H5'2        2.1280   -1.3678   -2.0460 H         1 ATP        -0.0393
     34 H4'         3.8040   -0.1399   -0.4044 H         1 ATP        -0.0393
     35 H3'         1.6768   -1.7637    0.2732 H         1 ATP        -0.0393
     36 HO3'        2.2231   -1.2979    2.3952 H         1 ATP         0.2010
     37 H2'         0.0002   -0.0084   -0.0014 H         1 ATP        -0.0393
     38 HO2'       -0.1554   -0.9852    2.0577 H         1 ATP         0.2010
     39 H1'         1.7718    1.9211    1.6015 H         1 ATP        -0.0393
     40 H8         -1.6458    1.4054   -0.1318 H         1 ATP         0.0000
     41 HN61       -2.5307    5.6598   -1.4199 H         1 ATP         0.2048
     42 HN62       -1.7773    7.2266   -1.5938 H         1 ATP         0.2048
     43 H2          2.6279    6.4808   -0.1872 H         1 ATP        -0.1292
     44 H44         0.5621    7.4166   -0.9900 H         1 ATP         0.2048
@<TRIPOS>BOND
     1    1    2 2
     2    1    3 1
     3    1    4 1
     4    1    8 1
     5    5    6 2
     6    5    7 1
     7    5    8 1
     8    5   12 1
     9    9   10 2
    10    9   11 1
    11    9   12 1
    12    9   13 1
    13   13   14 1
    14   14   15 1
    15   14   32 1
    16   14   33 1
    17   15   16 1
    18   15   17 1
    19   15   34 1
    20   16   21 1
    21   17   18 1
    22   17   19 1
    23   17   35 1
    24   18   36 1
    25   19   20 1
    26   19   21 1
    27   19   37 1
    28   20   38 1
    29   21   22 1
    30   21   39 1
    31   22   23 ar
    32   22   31 ar
    33   23   24 ar
    34   23   40 1
    35   24   25 ar
    36   25   26 ar
    37   25   31 ar
    38   26   27 1
    39   26   28 ar
    40   27   41 1
    41   27   42 1
    42   28   29 ar
    43   28   44 1
    44   29   30 ar
    45   29   43 1
    46   30   31 ar
@<TRIPOS>SUBSTRUCTURE
     1 ATP         1 GROUP 0 A     ****
@<TRIPOS>MOLECULE
[[[5-(6-amino-1,8-dihydropurine-6,8-diylium-7-id-9-yl)-3,4-dihydroxy-tetrahydrofuran-2-yl]methoxy-oxido-phosphoryl]oxy-oxido-phosphoryl] phosphate
   44    46     1     0     0
SMALL
USER_CHARGES

@<TRIPOS>ATOM
      1 PG         -1.5815   -6.1245   -3.3606 P.3       1 ATP        -1.1921
      2 O1G        -2.2451   -5.7503   -4.6817 O.co2     1 ATP         0.3195
      3 O2G        -0.5273   -7.2206   -3.4744 O.co2     1 ATP         0.3195
      4 O3G        -2.5551   -6.3104   -2.2014 O.co2     1 ATP         0.3195
      5 PB         -1.2350   -3.2534   -2.6602 P.3       1 ATP        -1.1062
      6 O1B        -1.7505   -2.6652   -3.9547 O.co2     1 ATP         0.3195
      7 O2B        -2.0799   -3.2472   -1.4058 O.co2     1 ATP         0.3195
      8 O3B        -0.7240   -4.7793   -2.9425 O.3       1 ATP         0.4672
      9 PA          1.5549   -2.4565   -3.2403 P.3       1 ATP        -1.1062
     10 O1A         1.2565   -1.5283   -4.3975 O.co2     1 ATP         0.3195
     11 O2A         2.1032   -3.8456   -3.4846 O.co2     1 ATP         0.3195
     12 O3A         0.2110   -2.5768   -2.3187 O.3       1 ATP         0.4672
     13 O5'         2.5245   -1.6648   -2.1878 O.3       1 ATP         0.1618
     14 C5'         2.2816   -0.2918   -1.9206 C.3       1 ATP         0.1504
     15 C4'         2.7248    0.0226   -0.4980 C.3       1 ATP         0.1111
     16 O4'         2.4697    1.4219   -0.2462 O.3       1 ATP        -0.1436
     17 C3'         1.9404   -0.7419    0.5596 C.3       1 ATP         0.1111
     18 O3'         2.7418   -0.8086    1.7389 O.3       1 ATP        -0.2728
     19 C2'         0.7477    0.1630    0.7858 C.3       1 ATP         0.1111
     20 O2'         0.1373   -0.0577    2.0407 O.3       1 ATP        -0.2728
     21 C1'         1.3733    1.5427    0.6747 C.3       1 ATP         0.2693
     22 N9          0.4520    2.5240    0.1767 N.pl3     1 ATP        -0.3222
     23 C8          0.1798    2.8712   -1.2933 C.ar      1 ATP         0.1640
     24 N7         -0.7494    3.8400   -1.3610 N.2       1 ATP        -0.1640
     25 C5         -1.0173    4.0603   -0.0358 C.ar      1 ATP         0.0820
     26 C6         -2.0105    5.0717    0.4241 C.ar      1 ATP         0.1640
     27 N6         -2.6723    5.7982   -0.4628 N.pl3     1 ATP        -0.4916
     28 N1         -2.1445    5.1522    1.7502 N.pl3     1 ATP        -0.4390
     29 C2         -1.3755    4.3143    2.6427 C.ar      1 ATP         0.5691
     30 N3         -0.5075    3.4292    2.2616 N.ar      1 ATP        -0.4283
     31 C4         -0.3667    3.3425    0.9070 C.ar      1 ATP         0.2226
     32 H5'1        2.8432    0.3119   -2.6398 H         1 ATP        -0.0393
     33 H5'2        1.2128   -0.0927   -2.0428 H         1 ATP        -0.0393
     34 H4'         3.8040   -0.1399   -0.4044 H         1 ATP        -0.0393
     35 H3'         1.6768   -1.7637    0.2732 H         1 ATP        -0.0393
     36 HO3'        2.2231   -1.2979    2.3952 H         1 ATP         0.2010
     37 H2'         0.0002   -0.0084   -0.0014 H         1 ATP        -0.0393
     38 HO2'       -0.6132    0.5577    2.1063 H         1 ATP         0.2010
     39 H1'         1.7718    1.9211    1.6015 H         1 ATP        -0.0393
     40 H8          0.6089    2.4651   -2.2147 H         1 ATP         0.0000
     41 HN61       -2.5055    5.6680   -1.4503 H         1 ATP         0.2048
     42 HN62       -3.3462    6.4841   -0.1542 H         1 ATP         0.2048
     43 H2         -1.5932    4.4937    3.7066 H         1 ATP        -0.1292
     44 H44        -2.8098    5.8270    2.1160 H         1 ATP         0.2048
@<TRIPOS>BOND
     1    1    2 2
     2    1    3 1
     3    1    4 1
     4    1    8 1
     5    5    6 2
     6    5    7 1
     7    5    8 1
     8    5   12 1
     9    9   10 2
    10    9   11 1
    11    9   12 1
    12    9   13 1
    13   13   14 1
    14   14   15 1
    15   14   32 1
    16   14   33 1
    17   15   16 1
    18   15   17 1
    19   15   34 1
    20   16   21 1
    21   17   18 1
    22   17   19 1
    23   17   35 1
    24   18   36 1
    25   19   20 1
    26   19   21 1
    27   19   37 1
    28   20   38 1
    29   21   22 1
    30   21   39 1
    31   22   23 ar
    32   22   31 ar
    33   23   24 ar
    34   23   40 1
    35   24   25 ar
    36   25   26 ar
    37   25   31 ar
    38   26   27 1
    39   26   28 ar
    40   27   41 1
    41   27   42 1
    42   28   29 ar
    43   28   44 1
    44   29   30 ar
    45   29   43 1
    46   30   31 ar
@<TRIPOS>SUBSTRUCTURE
     1 ATP         1 GROUP 0 A     ****
@<TRIPOS>MOLECULE
[[[5-(6-amino-1,8-dihydropurine-6,8-diylium-7-id-9-yl)-3,4-dihydroxy-tetrahydrofuran-2-yl]methoxy-oxido-phosphoryl]oxy-oxido-phosphoryl] phosphate
   44    46     1     0     0
SMALL
USER_CHARGES

@<TRIPOS>ATOM
      1 PG          4.6982    1.1393   -5.9122 P.3       1 ATP        -1.1921
      2 O1G         5.3144    1.8574   -4.7162 O.co2     1 ATP         0.3195
      3 O2G         5.2894    1.5402   -7.2596 O.co2     1 ATP         0.3195
      4 O3G         3.1744    1.0799   -5.8899 O.co2     1 ATP         0.3195
      5 PB          4.8597   -1.4720   -4.4947 P.3       1 ATP        -1.1062
      6 O1B         5.3585   -2.8446   -4.8881 O.co2     1 ATP         0.3195
      7 O2B         5.2864   -0.8263   -3.1954 O.co2     1 ATP         0.3195
      8 O3B         5.1563   -0.4334   -5.7204 O.3       1 ATP         0.4672
      9 PA          2.1375   -2.2725   -3.6560 P.3       1 ATP        -1.1062
     10 O1A         2.4976   -3.7422   -3.6687 O.co2     1 ATP         0.3195
     11 O2A         0.7481   -1.8133   -4.0418 O.co2     1 ATP         0.3195
     12 O3A         3.2287   -1.4684   -4.5683 O.3       1 ATP         0.4672
     13 O5'         2.5245   -1.6648   -2.1878 O.3       1 ATP         0.1618
     14 C5'         2.2816   -0.2918   -1.9206 C.3       1 ATP         0.1504
     15 C4'         2.7248    0.0226   -0.4980 C.3       1 ATP         0.1111
     16 O4'         2.4697    1.4219   -0.2462 O.3       1 ATP        -0.1436
     17 C3'         1.9404   -0.7419    0.5596 C.3       1 ATP         0.1111
     18 O3'         2.7418   -0.8086    1.7389 O.3       1 ATP        -0.2728
     19 C2'         0.7477    0.1630    0.7858 C.3       1 ATP         0.1111
     20 O2'         0.1373   -0.0577    2.0407 O.3       1 ATP        -0.2728
     21 C1'         1.3733    1.5427    0.6747 C.3       1 ATP         0.2693
     22 N9          0.4520    2.5240    0.1767 N.pl3     1 ATP        -0.3222
     23 C8          0.1798    2.8712   -1.2933 C.ar      1 ATP         0.1640
     24 N7         -0.7494    3.8400   -1.3610 N.2       1 ATP        -0.1640
     25 C5         -1.0173    4.0603   -0.0358 C.ar      1 ATP         0.0820
     26 C6         -2.0105    5.0717    0.4241 C.ar      1 ATP         0.1640
     27 N6         -2.6723    5.7982   -0.4628 N.pl3     1 ATP        -0.4916
     28 N1         -2.1445    5.1522    1.7502 N.pl3     1 ATP        -0.4390
     29 C2         -1.3755    4.3143    2.6427 C.ar      1 ATP         0.5691
     30 N3         -0.5075    3.4292    2.2616 N.ar      1 ATP        -0.4283
     31 C4         -0.3667    3.3425    0.9070 C.ar      1 ATP         0.2226
     32 H5'1        2.8432    0.3119   -2.6398 H         1 ATP        -0.0393
     33 H5'2        1.2128   -0.0927   -2.0428 H         1 ATP        -0.0393
     34 H4'         3.8040   -0.1399   -0.4044 H         1 ATP        -0.0393
     35 H3'         1.6768   -1.7637    0.2732 H         1 ATP        -0.0393
     36 HO3'        2.2231   -1.2979    2.3952 H         1 ATP         0.2010
     37 H2'         0.0002   -0.0084   -0.0014 H         1 ATP        -0.0393
     38 HO2'       -0.6132    0.5577    2.1063 H         1 ATP         0.2010
     39 H1'         1.7718    1.9211    1.6015 H         1 ATP        -0.0393
     40 H8          0.6089    2.4651   -2.2147 H         1 ATP         0.0000
     41 HN61       -2.5055    5.6680   -1.4503 H         1 ATP         0.2048
     42 HN62       -3.3462    6.4841   -0.1542 H         1 ATP         0.2048
     43 H2         -1.5932    4.4937    3.7066 H         1 ATP        -0.1292
     44 H44        -2.8098    5.8270    2.1160 H         1 ATP         0.2048
@<TRIPOS>BOND
     1    1    2 2
     2    1    3 1
     3    1    4 1
     4    1    8 1
     5    5    6 2
     6    5    7 1
     7    5    8 1
     8    5   12 1
     9    9   10 2
    10    9   11 1
    11    9   12 1
    12    9   13 1
    13   13   14 1
    14   14   15 1
    15   14   32 1
    16   14   33 1
    17   15   16 1
    18   15   17 1
    19   15   34 1
    20   16   21 1
    21   17   18 1
    22   17   19 1
    23   17   35 1
    24   18   36 1
    25   19   20 1
    26   19   21 1
    27   19   37 1
    28   20   38 1
    29   21   22 1
    30   21   39 1
    31   22   23 ar
    32   22   31 ar
    33   23   24 ar
    34   23   40 1
    35   24   25 ar
    36   25   26 ar
    37   25   31 ar
    38   26   27 1
    39   26   28 ar
    40   27   41 1
    41   27   42 1
    42   28   29 ar
    43   28   44 1
    44   29   30 ar
    45   29   43 1
    46   30   31 ar
@<TRIPOS>SUBSTRUCTURE
     1 ATP         1 GROUP 0 A     ****
@<TRIPOS>MOLECULE
[[[5-(6-amino-1,8-dihydropurine-6,8-diylium-7-id-9-yl)-3,4-dihydroxy-tetrahydrofuran-2-yl]methoxy-oxido-phosphoryl]oxy-oxido-phosphoryl] phosphate
   44    46     1     0     0
SMALL
USER_CHARGES

@<TRIPOS>ATOM
      1 PG          1.8418    6.2116   -1.3324 P.3       1 ATP        -1.1921
      2 O1G         0.4223    6.4561   -1.8334 O.co2     1 ATP         0.3195
      3 O2G         1.9686    6.1344    0.1854 O.co2     1 ATP         0.3195
      4 O3G         2.9013    7.0776   -2.0058 O.co2     1 ATP         0.3195
      5 PB          2.2458    4.0719   -3.3602 P.3       1 ATP        -1.1062
      6 O1B         0.8445    4.0644   -3.9292 O.co2     1 ATP         0.3195
      7 O2B         3.3917    4.7155   -4.1087 O.co2     1 ATP         0.3195
      8 O3B         2.1957    4.6852   -1.8468 O.3       1 ATP         0.4672
      9 PA          2.9240    1.2545   -3.9582 P.3       1 ATP        -1.1062
     10 O1A         4.1682    1.5224   -4.7766 O.co2     1 ATP         0.3195
     11 O2A         1.6205    0.8833   -4.6314 O.co2     1 ATP         0.3195
     12 O3A         2.6642    2.5395   -2.9830 O.3       1 ATP         0.4672
     13 O5'         3.2903    0.1346   -2.8241 O.3       1 ATP         0.1618
     14 C5'         2.2816   -0.2918   -1.9206 C.3       1 ATP         0.1504
     15 C4'         2.7248    0.0226   -0.4980 C.3       1 ATP         0.1111
     16 O4'         2.4697    1.4219   -0.2462 O.3       1 ATP        -0.1436
     17 C3'         1.9404   -0.7419    0.5596 C.3       1 ATP         0.1111
     18 O3'         2.7418   -0.8086    1.7389 O.3       1 ATP        -0.2728
     19 C2'         0.7477    0.1630    0.7858 C.3       1 ATP         0.1111
     20 O2'         0.1373   -0.0577    2.0407 O.3       1 ATP        -0.2728
     21 C1'         1.3733    1.5427    0.6747 C.3       1 ATP         0.2693
     22 N9          0.4520    2.5240    0.1767 N.pl3     1 ATP        -0.3222
     23 C8         -0.3054    2.4845   -1.1576 C.ar      1 ATP         0.1640
     24 N7         -1.0755    3.5806   -1.2691 N.2       1 ATP        -0.1640
     25 C5         -0.8043    4.2306   -0.0942 C.ar      1 ATP         0.0820
     26 C6         -1.4324    5.5335    0.2646 C.ar      1 ATP         0.1640
     27 N6         -2.2885    6.1054   -0.5675 N.pl3     1 ATP        -0.4916
     28 N1         -1.0537    6.0229    1.4478 N.pl3     1 ATP        -0.4390
     29 C2         -0.1096    5.3242    2.2908 C.ar      1 ATP         0.5691
     30 N3          0.4468    4.1904    1.9960 N.ar      1 ATP        -0.4283
     31 C4          0.0631    3.6855    0.7877 C.ar      1 ATP         0.2226
     32 H5'1        1.3514    0.2330   -2.1577 H         1 ATP        -0.0393
     33 H5'2        2.1280   -1.3678   -2.0460 H         1 ATP        -0.0393
     34 H4'         3.8040   -0.1399   -0.4044 H         1 ATP        -0.0393
     35 H3'         1.6768   -1.7637    0.2732 H         1 ATP        -0.0393
     36 HO3'        2.2231   -1.2979    2.3952 H         1 ATP         0.2010
     37 H2'         0.0002   -0.0084   -0.0014 H         1 ATP        -0.0393
     38 HO2'       -0.6132    0.5577    2.1063 H         1 ATP         0.2010
     39 H1'         1.7718    1.9211    1.6015 H         1 ATP        -0.0393
     40 H8         -0.2991    1.7413   -1.9611 H         1 ATP         0.0000
     41 HN61       -2.5167    5.6603   -1.4447 H         1 ATP         0.2048
     42 HN62       -2.7159    6.9882   -0.3270 H         1 ATP         0.2048
     43 H2          0.1059    5.8491    3.2340 H         1 ATP        -0.1292
     44 H44        -1.4532    6.9099    1.7401 H         1 ATP         0.2048
@<TRIPOS>BOND
     1    1    2 2
     2    1    3 1
     3    1    4 1
     4    1    8 1
     5    5    6 2
     6    5    7 1
     7    5    8 1
     8    5   12 1
     9    9   10 2
    10    9   11 1
    11    9   12 1
    12    9   13 1
    13   13   14 1
    14   14   15 1
    15   14   32 1
    16   14   33 1
    17   15   16 1
    18   15   17 1
    19   15   34 1
    20   16   21 1
    21   17   18 1
    22   17   19 1
    23   17   35 1
    24   18   36 1
    25   19   20 1
    26   19   21 1
    27   19   37 1
    28   20   38 1
    29   21   22 1
    30   21   39 1
    31   22   23 ar
    32   22   31 ar
    33   23   24 ar
    34   23   40 1
    35   24   25 ar
    36   25   26 ar
    37   25   31 ar
    38   26   27 1
    39   26   28 ar
    40   27   41 1
    41   27   42 1
    42   28   29 ar
    43   28   44 1
    44   29   30 ar
    45   29   43 1
    46   30   31 ar
@<TRIPOS>SUBSTRUCTURE
     1 ATP         1 GROUP 0 A     ****
@<TRIPOS>MOLECULE
[[[5-(6-amino-1,8-dihydropurine-6,8-diylium-7-id-9-yl)-3,4-dihydroxy-tetrahydrofuran-2-yl]methoxy-oxido-phosphoryl]oxy-oxido-phosphoryl] phosphate
   44    46     1     0     0
SMALL
USER_CHARGES

@<TRIPOS>ATOM
      1 PG          1.4298   -0.8214   -8.2057 P.3       1 ATP        -1.1921
      2 O1G         1.5597   -2.1954   -8.8547 O.co2     1 ATP         0.3195
      3 O2G        -0.0080   -0.3590   -7.9944 O.co2     1 ATP         0.3195
      4 O3G         2.3482    0.2412   -8.8000 O.co2     1 ATP         0.3195
      5 PB          3.4913   -1.5254   -6.1787 P.3       1 ATP        -1.1062
      6 O1B         3.6912   -2.9683   -6.5854 O.co2     1 ATP         0.3195
      7 O2B         4.5037   -0.4620   -6.5413 O.co2     1 ATP         0.3195
      8 O3B         2.0144   -1.0377   -6.6788 O.3       1 ATP         0.4672
      9 PA          2.1375   -2.2725   -3.6560 P.3       1 ATP        -1.1062
     10 O1A         2.4976   -3.7422   -3.6687 O.co2     1 ATP         0.3195
     11 O2A         0.7481   -1.8133   -4.0418 O.co2     1 ATP         0.3195
     12 O3A         3.2287   -1.4684   -4.5683 O.3       1 ATP         0.4672
     13 O5'         2.5245   -1.6648   -2.1878 O.3       1 ATP         0.1618
     14 C5'         2.2816   -0.2918   -1.9206 C.3       1 ATP         0.1504
     15 C4'         2.7248    0.0226   -0.4980 C.3       1 ATP         0.1111
     16 O4'         2.4697    1.4219   -0.2462 O.3       1 ATP        -0.1436
     17 C3'         1.9404   -0.7419    0.5596 C.3       1 ATP         0.1111
     18 O3'         2.7418   -0.8086    1.7389 O.3       1 ATP        -0.2728
     19 C2'         0.7477    0.1630    0.7858 C.3       1 ATP         0.1111
     20 O2'         0.1373   -0.0577    2.0407 O.3       1 ATP        -0.2728
     21 C1'         1.3733    1.5427    0.6747 C.3       1 ATP         0.2693
     22 N9          0.4520    2.5240    0.1767 N.pl3     1 ATP        -0.3222
     23 C8          0.1798    2.8712   -1.2933 C.ar      1 ATP         0.1640
     24 N7         -0.7494    3.8400   -1.3610 N.2       1 ATP        -0.1640
     25 C5         -1.0173    4.0603   -0.0358 C.ar      1 ATP         0.0820
     26 C6         -2.0105    5.0717    0.4241 C.ar      1 ATP         0.1640
     27 N6         -2.6723    5.7982   -0.4628 N.pl3     1 ATP        -0.4916
     28 N1         -2.1445    5.1522    1.7502 N.pl3     1 ATP        -0.4390
     29 C2         -1.3755    4.3143    2.6427 C.ar      1 ATP         0.5691
     30 N3         -0.5075    3.4292    2.2616 N.ar      1 ATP        -0.4283
     31 C4         -0.3667    3.3425    0.9070 C.ar      1 ATP         0.2226
     32 H5'1        2.8432    0.3119   -2.6398 H         1 ATP        -0.0393
     33 H5'2        1.2128   -0.0927   -2.0428 H         1 ATP        -0.0393
     34 H4'         3.8040   -0.1399   -0.4044 H         1 ATP        -0.0393
     35 H3'         1.6768   -1.7637    0.2732 H         1 ATP        -0.0393
     36 HO3'        2.2231   -1.2979    2.3952 H         1 ATP         0.2010
     37 H2'         0.0002   -0.0084   -0.0014 H         1 ATP        -0.0393
     38 HO2'       -0.6132    0.5577    2.1063 H         1 ATP         0.2010
     39 H1'         1.7718    1.9211    1.6015 H         1 ATP        -0.0393
     40 H8          0.6089    2.4651   -2.2147 H         1 ATP         0.0000
     41 HN61       -2.5055    5.6680   -1.4503 H         1 ATP         0.2048
     42 HN62       -3.3462    6.4841   -0.1542 H         1 ATP         0.2048
     43 H2         -1.5932    4.4937    3.7066 H         1 ATP        -0.1292
     44 H44        -2.8098    5.8270    2.1160 H         1 ATP         0.2048
@<TRIPOS>BOND
     1    1    2 2
     2    1    3 1
     3    1    4 1
     4    1    8 1
     5    5    6 2
     6    5    7 1
     7    5    8 1
     8    5   12 1
     9    9   10 2
    10    9   11 1
    11    9   12 1
    12    9   13 1
    13   13   14 1
    14   14   15 1
    15   14   32 1
    16   14   33 1
    17   15   16 1
    18   15   17 1
    19   15   34 1
    20   16   21 1
    21   17   18 1
    22   17   19 1
    23   17   35 1
    24   18   36 1
    25   19   20 1
    26   19   21 1
    27   19   37 1
    28   20   38 1
    29   21   22 1
    30   21   39 1
    31   22   23 ar
    32   22   31 ar
    33   23   24 ar
    34   23   40 1
    35   24   25 ar
    36   25   26 ar
    37   25   31 ar
    38   26   27 1
    39   26   28 ar
    40   27   41 1
    41   27   42 1
    42   28   29 ar
    43   28   44 1
    44   29   30 ar
    45   29   43 1
    46   30   31 ar
@<TRIPOS>SUBSTRUCTURE
     1 ATP         1 GROUP 0 A     ****
@<TRIPOS>MOLECULE
[[[5-(6-amino-1,8-dihydropurine-6,8-diylium-7-id-9-yl)-3,4-dihydroxy-tetrahydrofuran-2-yl]methoxy-oxido-phosphoryl]oxy-oxido-phosphoryl] phosphate
   44    46     1     0     0
SMALL
USER_CHARGES

@<TRIPOS>ATOM
      1 PG         -2.4873   -1.0545   -3.0107 P.3       1 ATP        -1.1921
      2 O1G        -2.7032   -0.1444   -4.2153 O.co2     1 ATP         0.3195
      3 O2G        -3.7670   -1.4408   -2.2768 O.co2     1 ATP         0.3195
      4 O3G        -1.3470   -0.6214   -2.0952 O.co2     1 ATP         0.3195
      5 PB         -0.6299   -2.7736   -4.5755 P.3       1 ATP        -1.1062
      6 O1B        -0.5066   -4.2681   -4.7729 O.co2     1 ATP         0.3195
      7 O2B        -0.6231   -1.8248   -5.7532 O.co2     1 ATP         0.3195
      8 O3B        -1.9514   -2.4708   -3.6639 O.3       1 ATP         0.4672
      9 PA          2.1375   -2.2725   -3.6560 P.3       1 ATP        -1.1062
     10 O1A         2.5092   -1.2469   -4.7046 O.co2     1 ATP         0.3195
     11 O2A         2.6337   -3.6984   -3.7587 O.co2     1 ATP         0.3195
     12 O3A         0.5101   -2.2919   -3.5107 O.3       1 ATP         0.4672
     13 O5'         2.5245   -1.6648   -2.1878 O.3       1 ATP         0.1618
     14 C5'         2.2816   -0.2918   -1.9206 C.3       1 ATP         0.1504
     15 C4'         2.7248    0.0226   -0.4980 C.3       1 ATP         0.1111
     16 O4'         2.4697    1.4219   -0.2462 O.3       1 ATP        -0.1436
     17 C3'         1.9404   -0.7419    0.5596 C.3       1 ATP         0.1111
     18 O3'         2.7418   -0.8086    1.7389 O.3       1 ATP        -0.2728
     19 C2'         0.7477    0.1630    0.7858 C.3       1 ATP         0.1111
     20 O2'         0.1373   -0.0577    2.0407 O.3       1 ATP        -0.2728
     21 C1'         1.3733    1.5427    0.6747 C.3       1 ATP         0.2693
     22 N9          0.4520    2.5240    0.1767 N.pl3     1 ATP        -0.3222
     23 C8          0.1798    2.8712   -1.2933 C.ar      1 ATP         0.1640
     24 N7         -0.7494    3.8400   -1.3610 N.2       1 ATP        -0.1640
     25 C5         -1.0173    4.0603   -0.0358 C.ar      1 ATP         0.0820
     26 C6         -2.0105    5.0717    0.4241 C.ar      1 ATP         0.1640
     27 N6         -2.6723    5.7982   -0.4628 N.pl3     1 ATP        -0.4916
     28 N1         -2.1445    5.1522    1.7502 N.pl3     1 ATP        -0.4390
     29 C2         -1.3755    4.3143    2.6427 C.ar      1 ATP         0.5691
     30 N3         -0.5075    3.4292    2.2616 N.ar      1 ATP        -0.4283
     31 C4         -0.3667    3.3425    0.9070 C.ar      1 ATP         0.2226
     32 H5'1        2.8432    0.3119   -2.6398 H         1 ATP        -0.0393
     33 H5'2        1.2128   -0.0927   -2.0428 H         1 ATP        -0.0393
     34 H4'         3.8040   -0.1399   -0.4044 H         1 ATP        -0.0393
     35 H3'         1.6768   -1.7637    0.2732 H         1 ATP        -0.0393
     36 HO3'        2.2231   -1.2979    2.3952 H         1 ATP         0.2010
     37 H2'         0.0002   -0.0084   -0.0014 H         1 ATP        -0.0393
     38 HO2'       -0.6132    0.5577    2.1063 H         1 ATP         0.2010
     39 H1'         1.7718    1.9211    1.6015 H         1 ATP        -0.0393
     40 H8          0.6089    2.4651   -2.2147 H         1 ATP         0.0000
     41 HN61       -2.5055    5.6680   -1.4503 H         1 ATP         0.2048
     42 HN62       -3.3462    6.4841   -0.1542 H         1 ATP         0.2048
     43 H2         -1.5932    4.4937    3.7066 H         1 ATP        -0.1292
     44 H44        -2.8098    5.8270    2.1160 H         1 ATP         0.2048
@<TRIPOS>BOND
     1    1    2 2
     2    1    3 1
     3    1    4 1
     4    1    8 1
     5    5    6 2
     6    5    7 1
     7    5    8 1
     8    5   12 1
     9    9   10 2
    10    9   11 1
    11    9   12 1
    12    9   13 1
    13   13   14 1
    14   14   15 1
    15   14   32 1
    16   14   33 1
    17   15   16 1
    18   15   17 1
    19   15   34 1
    20   16   21 1
    21   17   18 1
    22   17   19 1
    23   17   35 1
    24   18   36 1
    25   19   20 1
    26   19   21 1
    27   19   37 1
    28   20   38 1
    29   21   22 1
    30   21   39 1
    31   22   23 ar
    32   22   31 ar
    33   23   24 ar
    34   23   40 1
    35   24   25 ar
    36   25   26 ar
    37   25   31 ar
    38   26   27 1
    39   26   28 ar
    40   27   41 1
    41   27   42 1
    42   28   29 ar
    43   28   44 1
    44   29   30 ar
    45   29   43 1
    46   30   31 ar
@<TRIPOS>SUBSTRUCTURE
     1 ATP         1 GROUP 0 A     ****
@<TRIPOS>MOLECULE
[[[5-(6-amino-1,8-dihydropurine-6,8-diylium-7-id-9-yl)-3,4-dihydroxy-tetrahydrofuran-2-yl]methoxy-oxido-phosphoryl]oxy-oxido-phosphoryl] phosphate
   44    46     1     0     0
SMALL
USER_CHARGES

@<TRIPOS>ATOM
      1 PG         -1.5929   -0.4185   -7.1938 P.3       1 ATP        -1.1921
      2 O1G        -1.5732   -1.9044   -7.5366 O.co2     1 ATP         0.3195
      3 O2G        -2.8036    0.0229   -6.3783 O.co2     1 ATP         0.3195
      4 O3G        -1.2592    0.4989   -8.3656 O.co2     1 ATP         0.3195
      5 PB          1.2729   -0.5097   -6.3984 P.3       1 ATP        -1.1062
      6 O1B         1.4808   -1.9991   -6.5597 O.co2     1 ATP         0.3195
      7 O2B         1.7992    0.4700   -7.4233 O.co2     1 ATP         0.3195
      8 O3B        -0.3185   -0.2230   -6.1655 O.3       1 ATP         0.4672
      9 PA          3.3347   -0.0507   -4.3265 P.3       1 ATP        -1.1062
     10 O1A         4.1293    1.0001   -5.0709 O.co2     1 ATP         0.3195
     11 O2A         3.8336   -1.4764   -4.2346 O.co2     1 ATP         0.3195
     12 O3A         1.8141   -0.0637   -4.9241 O.3       1 ATP         0.4672
     13 O5'         3.0213    0.5153   -2.8245 O.3       1 ATP         0.1618
     14 C5'         2.2816   -0.2918   -1.9206 C.3       1 ATP         0.1504
     15 C4'         2.7248    0.0226   -0.4980 C.3       1 ATP         0.1111
     16 O4'         2.4697    1.4219   -0.2462 O.3       1 ATP        -0.1436
     17 C3'         1.9404   -0.7419    0.5596 C.3       1 ATP         0.1111
     18 O3'         2.7418   -0.8086    1.7389 O.3       1 ATP        -0.2728
     19 C2'         0.7477    0.1630    0.7858 C.3       1 ATP         0.1111
     20 O2'         0.1373   -0.0577    2.0407 O.3       1 ATP        -0.2728
     21 C1'         1.3733    1.5427    0.6747 C.3       1 ATP         0.2693
     22 N9          0.4520    2.5240    0.1767 N.pl3     1 ATP        -0.3222
     23 C8          0.1798    2.8712   -1.2933 C.ar      1 ATP         0.1640
     24 N7         -0.7494    3.8400   -1.3610 N.2       1 ATP        -0.1640
     25 C5         -1.0173    4.0603   -0.0358 C.ar      1 ATP         0.0820
     26 C6         -2.0105    5.0717    0.4241 C.ar      1 ATP         0.1640
     27 N6         -2.6723    5.7982   -0.4628 N.pl3     1 ATP        -0.4916
     28 N1         -2.1445    5.1522    1.7502 N.pl3     1 ATP        -0.4390
     29 C2         -1.3755    4.3143    2.6427 C.ar      1 ATP         0.5691
     30 N3         -0.5075    3.4292    2.2616 N.ar      1 ATP        -0.4283
     31 C4         -0.3667    3.3425    0.9070 C.ar      1 ATP         0.2226
     32 H5'1        1.2163   -0.0770   -2.0471 H         1 ATP        -0.0393
     33 H5'2        2.4655   -1.3443   -2.1563 H         1 ATP        -0.0393
     34 H4'         3.8040   -0.1399   -0.4044 H         1 ATP        -0.0393
     35 H3'         1.6768   -1.7637    0.2732 H         1 ATP        -0.0393
     36 HO3'        2.2231   -1.2979    2.3952 H         1 ATP         0.2010
     37 H2'         0.0002   -0.0084   -0.0014 H         1 ATP        -0.0393
     38 HO2'       -0.1554   -0.9852    2.0577 H         1 ATP         0.2010
     39 H1'         1.7718    1.9211    1.6015 H         1 ATP        -0.0393
     40 H8          0.6089    2.4651   -2.2147 H         1 ATP         0.0000
     41 HN61       -2.5055    5.6680   -1.4503 H         1 ATP         0.2048
     42 HN62       -3.3462    6.4841   -0.1542 H         1 ATP         0.2048
     43 H2         -1.5932    4.4937    3.7066 H         1 ATP        -0.1292
     44 H44        -2.8098    5.8270    2.1160 H         1 ATP         0.2048
@<TRIPOS>BOND
     1    1    2 2
     2    1    3 1
     3    1    4 1
     4    1    8 1
     5    5    6 2
     6    5    7 1
     7    5    8 1
     8    5   12 1
     9    9   10 2
    10    9   11 1
    11    9   12 1
    12    9   13 1
    13   13   14 1
    14   14   15 1
    15   14   32 1
    16   14   33 1
    17   15   16 1
    18   15   17 1
    19   15   34 1
    20   16   21 1
    21   17   18 1
    22   17   19 1
    23   17   35 1
    24   18   36 1
    25   19   20 1
    26   19   21 1
    27   19   37 1
    28   20   38 1
    29   21   22 1
    30   21   39 1
    31   22   23 ar
    32   22   31 ar
    33   23   24 ar
    34   23   40 1
    35   24   25 ar
    36   25   26 ar
    37   25   31 ar
    38   26   27 1
    39   26   28 ar
    40   27   41 1
    41   27   42 1
    42   28   29 ar
    43   28   44 1
    44   29   30 ar
    45   29   43 1
    46   30   31 ar
@<TRIPOS>SUBSTRUCTURE
     1 ATP         1 GROUP 0 A     ****
@<TRIPOS>MOLECULE
[[[5-(6-amino-1,8-dihydropurine-6,8-diylium-7-id-9-yl)-3,4-dihydroxy-tetrahydrofuran-2-yl]methoxy-oxido-phosphoryl]oxy-oxido-phosphoryl] phosphate
   44    46     1     0     0
SMALL
USER_CHARGES

@<TRIPOS>ATOM
      1 PG          4.2559   -4.0065   -7.6324 P.3       1 ATP        -1.1921
      2 O1G         5.5160   -3.3360   -8.1694 O.co2     1 ATP         0.3195
      3 O2G         4.4762   -5.4126   -7.0848 O.co2     1 ATP         0.3195
      4 O3G         3.0391   -3.8724   -8.5420 O.co2     1 ATP         0.3195
      5 PB          3.4913   -1.5254   -6.1787 P.3       1 ATP        -1.1062
      6 O1B         4.7283   -0.7150   -6.4959 O.co2     1 ATP         0.3195
      7 O2B         2.1823   -1.2680   -6.8912 O.co2     1 ATP         0.3195
      8 O3B         3.8557   -3.1129   -6.3053 O.3       1 ATP         0.4672
      9 PA          2.1375   -2.2725   -3.6560 P.3       1 ATP        -1.1062
     10 O1A         2.4976   -3.7422   -3.6687 O.co2     1 ATP         0.3195
     11 O2A         0.7481   -1.8133   -4.0418 O.co2     1 ATP         0.3195
     12 O3A         3.2287   -1.4684   -4.5683 O.3       1 ATP         0.4672
     13 O5'         2.5245   -1.6648   -2.1878 O.3       1 ATP         0.1618
     14 C5'         2.2816   -0.2918   -1.9206 C.3       1 ATP         0.1504
     15 C4'         2.7248    0.0226   -0.4980 C.3       1 ATP         0.1111
     16 O4'         2.4697    1.4219   -0.2462 O.3       1 ATP        -0.1436
     17 C3'         1.9404   -0.7419    0.5596 C.3       1 ATP         0.1111
     18 O3'         2.7418   -0.8086    1.7389 O.3       1 ATP        -0.2728
     19 C2'         0.7477    0.1630    0.7858 C.3       1 ATP         0.1111
     20 O2'         0.1373   -0.0577    2.0407 O.3       1 ATP        -0.2728
     21 C1'         1.3733    1.5427    0.6747 C.3       1 ATP         0.2693
     22 N9          0.4520    2.5240    0.1767 N.pl3     1 ATP        -0.3222
     23 C8          0.1798    2.8712   -1.2933 C.ar      1 ATP         0.1640
     24 N7         -0.7494    3.8400   -1.3610 N.2       1 ATP        -0.1640
     25 C5         -1.0173    4.0603   -0.0358 C.ar      1 ATP         0.0820
     26 C6         -2.0105    5.0717    0.4241 C.ar      1 ATP         0.1640
     27 N6         -2.6723    5.7982   -0.4628 N.pl3     1 ATP        -0.4916
     28 N1         -2.1445    5.1522    1.7502 N.pl3     1 ATP        -0.4390
     29 C2         -1.3755    4.3143    2.6427 C.ar      1 ATP         0.5691
     30 N3         -0.5075    3.4292    2.2616 N.ar      1 ATP        -0.4283
     31 C4         -0.3667    3.3425    0.9070 C.ar      1 ATP         0.2226
     32 H5'1        2.8432    0.3119   -2.6398 H         1 ATP        -0.0393
     33 H5'2        1.2128   -0.0927   -2.0428 H         1 ATP        -0.0393
     34 H4'         3.8040   -0.1399   -0.4044 H         1 ATP        -0.0393
     35 H3'         1.6768   -1.7637    0.2732 H         1 ATP        -0.0393
     36 HO3'        2.2231   -1.2979    2.3952 H         1 ATP         0.2010
     37 H2'         0.0002   -0.0084   -0.0014 H         1 ATP        -0.0393
     38 HO2'       -0.6132    0.5577    2.1063 H         1 ATP         0.2010
     39 H1'         1.7718    1.9211    1.6015 H         1 ATP        -0.0393
     40 H8          0.6089    2.4651   -2.2147 H         1 ATP         0.0000
     41 HN61       -2.5055    5.6680   -1.4503 H         1 ATP         0.2048
     42 HN62       -3.3462    6.4841   -0.1542 H         1 ATP         0.2048
     43 H2         -1.5932    4.4937    3.7066 H         1 ATP        -0.1292
     44 H44        -2.8098    5.8270    2.1160 H         1 ATP         0.2048
@<TRIPOS>BOND
     1    1    2 2
     2    1    3 1
     3    1    4 1
     4    1    8 1
     5    5    6 2
     6    5    7 1
     7    5    8 1
     8    5   12 1
     9    9   10 2
    10    9   11 1
    11    9   12 1
    12    9   13 1
    13   13   14 1
    14   14   15 1
    15   14   32 1
    16   14   33 1
    17   15   16 1
    18   15   17 1
    19   15   34 1
    20   16   21 1
    21   17   18 1
    22   17   19 1
    23   17   35 1
    24   18   36 1
    25   19   20 1
    26   19   21 1
    27   19   37 1
    28   20   38 1
    29   21   22 1
    30   21   39 1
    31   22   23 ar
    32   22   31 ar
    33   23   24 ar
    34   23   40 1
    35   24   25 ar
    36   25   26 ar
    37   25   31 ar
    38   26   27 1
    39   26   28 ar
    40   27   41 1
    41   27   42 1
    42   28   29 ar
    43   28   44 1
    44   29   30 ar
    45   29   43 1
    46   30   31 ar
@<TRIPOS>SUBSTRUCTURE
     1 ATP         1 GROUP 0 A     ****
@<TRIPOS>MOLECULE
[[[5-(6-amino-1,8-dihydropurine-6,8-diylium-7-id-9-yl)-3,4-dihydroxy-tetrahydrofuran-2-yl]methoxy-oxido-phosphoryl]oxy-oxido-phosphoryl] phosphate
   44    46     1     0     0
SMALL
USER_CHARGES

@<TRIPOS>ATOM
      1 PG          4.4013   -4.7658   -1.8649 P.3       1 ATP        -1.1921
      2 O1G         3.3033   -5.6616   -2.4287 O.co2     1 ATP         0.3195
      3 O2G         5.4618   -5.5044   -1.0554 O.co2     1 ATP         0.3195
      4 O3G         3.8909   -3.4871   -1.2088 O.co2     1 ATP         0.3195
      5 PB          4.6722   -3.3645   -4.4758 P.3       1 ATP        -1.1062
      6 O1B         5.8542   -2.9866   -5.3404 O.co2     1 ATP         0.3195
      7 O2B         3.4646   -4.0618   -5.0613 O.co2     1 ATP         0.3195
      8 O3B         5.2101   -4.2285   -3.1979 O.3       1 ATP         0.4672
      9 PA          3.4850   -0.6647   -4.2376 P.3       1 ATP        -1.1062
     10 O1A         2.1142   -1.0053   -4.7803 O.co2     1 ATP         0.3195
     11 O2A         4.4967    0.0648   -5.0945 O.co2     1 ATP         0.3195
     12 O3A         4.1684   -2.0364   -3.6709 O.3       1 ATP         0.4672
     13 O5'         3.2903    0.1346   -2.8241 O.3       1 ATP         0.1618
     14 C5'         2.2816   -0.2918   -1.9206 C.3       1 ATP         0.1504
     15 C4'         2.7248    0.0226   -0.4980 C.3       1 ATP         0.1111
     16 O4'         2.4697    1.4219   -0.2462 O.3       1 ATP        -0.1436
     17 C3'         1.9404   -0.7419    0.5596 C.3       1 ATP         0.1111
     18 O3'         2.7418   -0.8086    1.7389 O.3       1 ATP        -0.2728
     19 C2'         0.7477    0.1630    0.7858 C.3       1 ATP         0.1111
     20 O2'         0.1373   -0.0577    2.0407 O.3       1 ATP        -0.2728
     21 C1'         1.3733    1.5427    0.6747 C.3       1 ATP         0.2693
     22 N9          0.4520    2.5240    0.1767 N.pl3     1 ATP        -0.3222
     23 C8          0.1798    2.8712   -1.2933 C.ar      1 ATP         0.1640
     24 N7         -0.7494    3.8400   -1.3610 N.2       1 ATP        -0.1640
     25 C5         -1.0173    4.0603   -0.0358 C.ar      1 ATP         0.0820
     26 C6         -2.0105    5.0717    0.4241 C.ar      1 ATP         0.1640
     27 N6         -2.6723    5.7982   -0.4628 N.pl3     1 ATP        -0.4916
     28 N1         -2.1445    5.1522    1.7502 N.pl3     1 ATP        -0.4390
     29 C2         -1.3755    4.3143    2.6427 C.ar      1 ATP         0.5691
     30 N3         -0.5075    3.4292    2.2616 N.ar      1 ATP        -0.4283
     31 C4         -0.3667    3.3425    0.9070 C.ar      1 ATP         0.2226
     32 H5'1        1.3514    0.2330   -2.1577 H         1 ATP        -0.0393
     33 H5'2        2.1280   -1.3678   -2.0460 H         1 ATP        -0.0393
     34 H4'         3.8040   -0.1399   -0.4044 H         1 ATP        -0.0393
     35 H3'         1.6768   -1.7637    0.2732 H         1 ATP        -0.0393
     36 HO3'        2.2231   -1.2979    2.3952 H         1 ATP         0.2010
     37 H2'         0.0002   -0.0084   -0.0014 H         1 ATP        -0.0393
     38 HO2'       -0.6132    0.5577    2.1063 H         1 ATP         0.2010
     39 H1'         1.7718    1.9211    1.6015 H         1 ATP        -0.0393
     40 H8          0.6089    2.4651   -2.2147 H         1 ATP         0.0000
     41 HN61       -2.5055    5.6680   -1.4503 H         1 ATP         0.2048
     42 HN62       -3.3462    6.4841   -0.1542 H         1 ATP         0.2048
     43 H2         -1.5932    4.4937    3.7066 H         1 ATP        -0.1292
     44 H44        -2.8098    5.8270    2.1160 H         1 ATP         0.2048
@<TRIPOS>BOND
     1    1    2 2
     2    1    3 1
     3    1    4 1
     4    1    8 1
     5    5    6 2
     6    5    7 1
     7    5    8 1
     8    5   12 1
     9    9   10 2
    10    9   11 1
    11    9   12 1
    12    9   13 1
    13   13   14 1
    14   14   15 1
    15   14   32 1
    16   14   33 1
    17   15   16 1
    18   15   17 1
    19   15   34 1
    20   16   21 1
    21   17   18 1
    22   17   19 1
    23   17   35 1
    24   18   36 1
    25   19   20 1
    26   19   21 1
    27   19   37 1
    28   20   38 1
    29   21   22 1
    30   21   39 1
    31   22   23 ar
    32   22   31 ar
    33   23   24 ar
    34   23   40 1
    35   24   25 ar
    36   25   26 ar
    37   25   31 ar
    38   26   27 1
    39   26   28 ar
    40   27   41 1
    41   27   42 1
    42   28   29 ar
    43   28   44 1
    44   29   30 ar
    45   29   43 1
    46   30   31 ar
@<TRIPOS>SUBSTRUCTURE
     1 ATP         1 GROUP 0 A     ****
@<TRIPOS>MOLECULE
[[[5-(6-amino-1,8-dihydropurine-6,8-diylium-7-id-9-yl)-3,4-dihydroxy-tetrahydrofuran-2-yl]methoxy-oxido-phosphoryl]oxy-oxido-phosphoryl] phosphate
   44    46     1     0     0
SMALL
USER_CHARGES

@<TRIPOS>ATOM
      1 PG         -2.4966   -1.0400   -3.1133 P.3       1 ATP        -1.1921
      2 O1G        -1.5272   -0.3322   -4.0541 O.co2     1 ATP         0.3195
      3 O2G        -3.8952   -1.2418   -3.6867 O.co2     1 ATP         0.3195
      4 O3G        -2.4767   -0.5138   -1.6820 O.co2     1 ATP         0.3195
      5 PB         -0.4352   -3.0758   -2.4350 P.3       1 ATP        -1.1062
      6 O1B        -0.1965   -2.4872   -1.0623 O.co2     1 ATP         0.3195
      7 O2B        -0.3162   -4.5633   -2.6808 O.co2     1 ATP         0.3195
      8 O3B        -1.8892   -2.5674   -2.9797 O.3       1 ATP         0.4672
      9 PA          2.1375   -2.2725   -3.6560 P.3       1 ATP        -1.1062
     10 O1A         2.5092   -1.2469   -4.7046 O.co2     1 ATP         0.3195
     11 O2A         2.6337   -3.6984   -3.7587 O.co2     1 ATP         0.3195
     12 O3A         0.5101   -2.2919   -3.5107 O.3       1 ATP         0.4672
     13 O5'         2.5245   -1.6648   -2.1878 O.3       1 ATP         0.1618
     14 C5'         2.2816   -0.2918   -1.9206 C.3       1 ATP         0.1504
     15 C4'         2.7248    0.0226   -0.4980 C.3       1 ATP         0.1111
     16 O4'         2.4697    1.4219   -0.2462 O.3       1 ATP        -0.1436
     17 C3'         1.9404   -0.7419    0.5596 C.3       1 ATP         0.1111
     18 O3'         2.7418   -0.8086    1.7389 O.3       1 ATP        -0.2728
     19 C2'         0.7477    0.1630    0.7858 C.3       1 ATP         0.1111
     20 O2'         0.1373   -0.0577    2.0407 O.3       1 ATP        -0.2728
     21 C1'         1.3733    1.5427    0.6747 C.3       1 ATP         0.2693
     22 N9          0.4520    2.5240    0.1767 N.pl3     1 ATP        -0.3222
     23 C8          0.1798    2.8712   -1.2933 C.ar      1 ATP         0.1640
     24 N7         -0.7494    3.8400   -1.3610 N.2       1 ATP        -0.1640
     25 C5         -1.0173    4.0603   -0.0358 C.ar      1 ATP         0.0820
     26 C6         -2.0105    5.0717    0.4241 C.ar      1 ATP         0.1640
     27 N6         -2.6723    5.7982   -0.4628 N.pl3     1 ATP        -0.4916
     28 N1         -2.1445    5.1522    1.7502 N.pl3     1 ATP        -0.4390
     29 C2         -1.3755    4.3143    2.6427 C.ar      1 ATP         0.5691
     30 N3         -0.5075    3.4292    2.2616 N.ar      1 ATP        -0.4283
     31 C4         -0.3667    3.3425    0.9070 C.ar      1 ATP         0.2226
     32 H5'1        2.8432    0.3119   -2.6398 H         1 ATP        -0.0393
     33 H5'2        1.2128   -0.0927   -2.0428 H         1 ATP        -0.0393
     34 H4'         3.8040   -0.1399   -0.4044 H         1 ATP        -0.0393
     35 H3'         1.6768   -1.7637    0.2732 H         1 ATP        -0.0393
     36 HO3'        2.2231   -1.2979    2.3952 H         1 ATP         0.2010
     37 H2'         0.0002   -0.0084   -0.0014 H         1 ATP        -0.0393
     38 HO2'       -0.1554   -0.9852    2.0577 H         1 ATP         0.2010
     39 H1'         1.7718    1.9211    1.6015 H         1 ATP        -0.0393
     40 H8          0.6089    2.4651   -2.2147 H         1 ATP         0.0000
     41 HN61       -2.5055    5.6680   -1.4503 H         1 ATP         0.2048
     42 HN62       -3.3462    6.4841   -0.1542 H         1 ATP         0.2048
     43 H2         -1.5932    4.4937    3.7066 H         1 ATP        -0.1292
     44 H44        -2.8098    5.8270    2.1160 H         1 ATP         0.2048
@<TRIPOS>BOND
     1    1    2 2
     2    1    3 1
     3    1    4 1
     4    1    8 1
     5    5    6 2
     6    5    7 1
     7    5    8 1
     8    5   12 1
     9    9   10 2
    10    9   11 1
    11    9   12 1
    12    9   13 1
    13   13   14 1
    14   14   15 1
    15   14   32 1
    16   14   33 1
    17   15   16 1
    18   15   17 1
    19   15   34 1
    20   16   21 1
    21   17   18 1
    22   17   19 1
    23   17   35 1
    24   18   36 1
    25   19   20 1
    26   19   21 1
    27   19   37 1
    28   20   38 1
    29   21   22 1
    30   21   39 1
    31   22   23 ar
    32   22   31 ar
    33   23   24 ar
    34   23   40 1
    35   24   25 ar
    36   25   26 ar
    37   25   31 ar
    38   26   27 1
    39   26   28 ar
    40   27   41 1
    41   27   42 1
    42   28   29 ar
    43   28   44 1
    44   29   30 ar
    45   29   43 1
    46   30   31 ar
@<TRIPOS>SUBSTRUCTURE
     1 ATP         1 GROUP 0 A     ****
@<TRIPOS>MOLECULE
[[[5-(6-amino-1,8-dihydropurine-6,8-diylium-7-id-9-yl)-3,4-dihydroxy-tetrahydrofuran-2-yl]methoxy-oxido-phosphoryl]oxy-oxido-phosphoryl] phosphate
   44    46     1     0     0
SMALL
USER_CHARGES

@<TRIPOS>ATOM
      1 PG         -1.2257    3.2696   -6.1455 P.3       1 ATP        -1.1921
      2 O1G        -2.1588    2.2087   -6.7196 O.co2     1 ATP         0.3195
      3 O2G        -1.8339    4.0998   -5.0201 O.co2     1 ATP         0.3195
      4 O3G        -0.4860    4.0886   -7.1981 O.co2     1 ATP         0.3195
      5 PB          1.0152    1.3151   -6.0352 P.3       1 ATP        -1.1062
      6 O1B         0.2408    0.0935   -6.4773 O.co2     1 ATP         0.3195
      7 O2B         1.9552    2.0307   -6.9795 O.co2     1 ATP         0.3195
      8 O3B        -0.0309    2.4031   -5.4098 O.3       1 ATP         0.4672
      9 PA          3.0683   -0.0853   -4.4294 P.3       1 ATP        -1.1062
     10 O1A         4.2833    0.4538   -5.1525 O.co2     1 ATP         0.3195
     11 O2A         2.5798   -1.4950   -4.6828 O.co2     1 ATP         0.3195
     12 O3A         1.8276    0.9511   -4.6666 O.3       1 ATP         0.4672
     13 O5'         3.2903    0.1346   -2.8241 O.3       1 ATP         0.1618
     14 C5'         2.2816   -0.2918   -1.9206 C.3       1 ATP         0.1504
     15 C4'         2.7248    0.0226   -0.4980 C.3       1 ATP         0.1111
     16 O4'         2.4697    1.4219   -0.2462 O.3       1 ATP        -0.1436
     17 C3'         1.9404   -0.7419    0.5596 C.3       1 ATP         0.1111
     18 O3'         2.7418   -0.8086    1.7389 O.3       1 ATP        -0.2728
     19 C2'         0.7477    0.1630    0.7858 C.3       1 ATP         0.1111
     20 O2'         0.1373   -0.0577    2.0407 O.3       1 ATP        -0.2728
     21 C1'         1.3733    1.5427    0.6747 C.3       1 ATP         0.2693
     22 N9          0.4520    2.5240    0.1767 N.pl3     1 ATP        -0.3222
     23 C8         -0.8593    2.9753    0.8343 C.ar      1 ATP         0.1640
     24 N7         -1.4457    3.9121    0.0693 N.2       1 ATP        -0.1640
     25 C5         -0.5581    4.0180   -0.9686 C.ar      1 ATP         0.0820
     26 C6         -0.7663    4.9543   -2.1092 C.ar      1 ATP         0.1640
     27 N6         -1.8429    5.7238   -2.1440 N.pl3     1 ATP        -0.4916
     28 N1          0.1993    4.9263   -3.0311 N.pl3     1 ATP        -0.4390
     29 C2          1.3416    4.0491   -2.9069 C.ar      1 ATP         0.5691
     30 N3          1.5401    3.2284   -1.9225 N.ar      1 ATP        -0.4283
     31 C4          0.5563    3.2529   -0.9772 C.ar      1 ATP         0.2226
     32 H5'1        1.3514    0.2330   -2.1577 H         1 ATP        -0.0393
     33 H5'2        2.1280   -1.3678   -2.0460 H         1 ATP        -0.0393
     34 H4'         3.8040   -0.1399   -0.4044 H         1 ATP        -0.0393
     35 H3'         1.6768   -1.7637    0.2732 H         1 ATP        -0.0393
     36 HO3'        2.2231   -1.2979    2.3952 H         1 ATP         0.2010
     37 H2'         0.0002   -0.0084   -0.0014 H         1 ATP        -0.0393
     38 HO2'       -0.1554   -0.9852    2.0577 H         1 ATP         0.2010
     39 H1'         1.7718    1.9211    1.6015 H         1 ATP        -0.0393
     40 H8         -1.3368    2.6590    1.7670 H         1 ATP         0.0000
     41 HN61       -2.5230    5.6776   -1.3990 H         1 ATP         0.2048
     42 HN62       -1.9865    6.3594   -2.9154 H         1 ATP         0.2048
     43 H2          2.0529    4.1368   -3.7423 H         1 ATP        -0.1292
     44 H44         0.1054    5.5465   -3.8301 H         1 ATP         0.2048
@<TRIPOS>BOND
     1    1    2 2
     2    1    3 1
     3    1    4 1
     4    1    8 1
     5    5    6 2
     6    5    7 1
     7    5    8 1
     8    5   12 1
     9    9   10 2
    10    9   11 1
    11    9   12 1
    12    9   13 1
    13   13   14 1
    14   14   15 1
    15   14   32 1
    16   14   33 1
    17   15   16 1
    18   15   17 1
    19   15   34 1
    20   16   21 1
    21   17   18 1
    22   17   19 1
    23   17   35 1
    24   18   36 1
    25   19   20 1
    26   19   21 1
    27   19   37 1
    28   20   38 1
    29   21   22 1
    30   21   39 1
    31   22   23 ar
    32   22   31 ar
    33   23   24 ar
    34   23   40 1
    35   24   25 ar
    36   25   26 ar
    37   25   31 ar
    38   26   27 1
    39   26   28 ar
    40   27   41 1
    41   27   42 1
    42   28   29 ar
    43   28   44 1
    44   29   30 ar
    45   29   43 1
    46   30   31 ar
@<TRIPOS>SUBSTRUCTURE
     1 ATP         1 GROUP 0 A     ****
@<TRIPOS>MOLECULE
[[[5-(6-amino-1,8-dihydropurine-6,8-diylium-7-id-9-yl)-3,4-dihydroxy-tetrahydrofuran-2-yl]methoxy-oxido-phosphoryl]oxy-oxido-phosphoryl] phosphate
   44    46     1     0     0
SMALL
USER_CHARGES

@<TRIPOS>ATOM
      1 PG         -0.8941    3.5736   -5.7887 P.3       1 ATP        -1.1921
      2 O1G        -2.1964    2.8153   -6.0227 O.co2     1 ATP         0.3195
      3 O2G        -0.9695    4.6294   -4.6909 O.co2     1 ATP         0.3195
      4 O3G        -0.2064    4.0459   -7.0654 O.co2     1 ATP         0.3195
      5 PB          0.6565    1.0346   -5.8464 P.3       1 ATP        -1.1062
      6 O1B        -0.5145    0.0843   -5.9609 O.co2     1 ATP         0.3195
      7 O2B         1.5253    1.3546   -7.0422 O.co2     1 ATP         0.3195
      8 O3B         0.1350    2.4347   -5.1855 O.3       1 ATP         0.4672
      9 PA          2.9240    1.2545   -3.9582 P.3       1 ATP        -1.1062
     10 O1A         2.4677    2.5117   -3.2503 O.co2     1 ATP         0.3195
     11 O2A         4.0284    1.3063   -4.9915 O.co2     1 ATP         0.3195
     12 O3A         1.6158    0.5359   -4.6230 O.3       1 ATP         0.4672
     13 O5'         3.2903    0.1346   -2.8241 O.3       1 ATP         0.1618
     14 C5'         2.2816   -0.2918   -1.9206 C.3       1 ATP         0.1504
     15 C4'         2.7248    0.0226   -0.4980 C.3       1 ATP         0.1111
     16 O4'         2.4697    1.4219   -0.2462 O.3       1 ATP        -0.1436
     17 C3'         1.9404   -0.7419    0.5596 C.3       1 ATP         0.1111
     18 O3'         2.7418   -0.8086    1.7389 O.3       1 ATP        -0.2728
     19 C2'         0.7477    0.1630    0.7858 C.3       1 ATP         0.1111
     20 O2'         0.1373   -0.0577    2.0407 O.3       1 ATP        -0.2728
     21 C1'         1.3733    1.5427    0.6747 C.3       1 ATP         0.2693
     22 N9          0.4520    2.5240    0.1767 N.pl3     1 ATP        -0.3222
     23 C8         -0.3054    2.4845   -1.1576 C.ar      1 ATP         0.1640
     24 N7         -1.0755    3.5806   -1.2691 N.2       1 ATP        -0.1640
     25 C5         -0.8043    4.2306   -0.0942 C.ar      1 ATP         0.0820
     26 C6         -1.4324    5.5335    0.2646 C.ar      1 ATP         0.1640
     27 N6         -2.2885    6.1054   -0.5675 N.pl3     1 ATP        -0.4916
     28 N1         -1.0537    6.0229    1.4478 N.pl3     1 ATP        -0.4390
     29 C2         -0.1096    5.3242    2.2908 C.ar      1 ATP         0.5691
     30 N3          0.4468    4.1904    1.9960 N.ar      1 ATP        -0.4283
     31 C4          0.0631    3.6855    0.7877 C.ar      1 ATP         0.2226
     32 H5'1        1.3514    0.2330   -2.1577 H         1 ATP        -0.0393
     33 H5'2        2.1280   -1.3678   -2.0460 H         1 ATP        -0.0393
     34 H4'         3.8040   -0.1399   -0.4044 H         1 ATP        -0.0393
     35 H3'         1.6768   -1.7637    0.2732 H         1 ATP        -0.0393
     36 HO3'        2.2231   -1.2979    2.3952 H         1 ATP         0.2010
     37 H2'         0.0002   -0.0084   -0.0014 H         1 ATP        -0.0393
     38 HO2'       -0.1554   -0.9852    2.0577 H         1 ATP         0.2010
     39 H1'         1.7718    1.9211    1.6015 H         1 ATP        -0.0393
     40 H8         -0.2991    1.7413   -1.9611 H         1 ATP         0.0000
     41 HN61       -2.5167    5.6603   -1.4447 H         1 ATP         0.2048
     42 HN62       -2.7159    6.9882   -0.3270 H         1 ATP         0.2048
     43 H2          0.1059    5.8491    3.2340 H         1 ATP        -0.1292
     44 H44        -1.4532    6.9099    1.7401 H         1 ATP         0.2048
@<TRIPOS>BOND
     1    1    2 2
     2    1    3 1
     3    1    4 1
     4    1    8 1
     5    5    6 2
     6    5    7 1
     7    5    8 1
     8    5   12 1
     9    9   10 2
    10    9   11 1
    11    9   12 1
    12    9   13 1
    13   13   14 1
    14   14   15 1
    15   14   32 1
    16   14   33 1
    17   15   16 1
    18   15   17 1
    19   15   34 1
    20   16   21 1
    21   17   18 1
    22   17   19 1
    23   17   35 1
    24   18   36 1
    25   19   20 1
    26   19   21 1
    27   19   37 1
    28   20   38 1
    29   21   22 1
    30   21   39 1
    31   22   23 ar
    32   22   31 ar
    33   23   24 ar
    34   23   40 1
    35   24   25 ar
    36   25   26 ar
    37   25   31 ar
    38   26   27 1
    39   26   28 ar
    40   27   41 1
    41   27   42 1
    42   28   29 ar
    43   28   44 1
    44   29   30 ar
    45   29   43 1
    46   30   31 ar
@<TRIPOS>SUBSTRUCTURE
     1 ATP         1 GROUP 0 A     ****
@<TRIPOS>MOLECULE
[[[5-(6-amino-1,8-dihydropurine-6,8-diylium-7-id-9-yl)-3,4-dihydroxy-tetrahydrofuran-2-yl]methoxy-oxido-phosphoryl]oxy-oxido-phosphoryl] phosphate
   44    46     1     0     0
SMALL
USER_CHARGES

@<TRIPOS>ATOM
      1 PG          0.8652    2.8899   -8.1005 P.3       1 ATP        -1.1921
      2 O1G        -0.4019    3.7105   -7.8835 O.co2     1 ATP         0.3195
      3 O2G         2.1151    3.7216   -8.3683 O.co2     1 ATP         0.3195
      4 O3G         0.6891    1.7034   -9.0424 O.co2     1 ATP         0.3195
      5 PB          0.2195    1.1748   -5.7563 P.3       1 ATP        -1.1062
      6 O1B        -1.0106    1.9218   -5.2910 O.co2     1 ATP         0.3195
      7 O2B         0.1047   -0.1410   -6.4931 O.co2     1 ATP         0.3195
      8 O3B         1.1505    2.1899   -6.6347 O.3       1 ATP         0.4672
      9 PA          2.7413    0.3775   -4.4298 P.3       1 ATP        -1.1062
     10 O1A         3.6560    1.3416   -5.1533 O.co2     1 ATP         0.3195
     11 O2A         2.7031   -1.0864   -4.8115 O.co2     1 ATP         0.3195
     12 O3A         1.2211    0.9740   -4.4828 O.3       1 ATP         0.4672
     13 O5'         3.0213    0.5153   -2.8245 O.3       1 ATP         0.1618
     14 C5'         2.2816   -0.2918   -1.9206 C.3       1 ATP         0.1504
     15 C4'         2.7248    0.0226   -0.4980 C.3       1 ATP         0.1111
     16 O4'         2.4697    1.4219   -0.2462 O.3       1 ATP        -0.1436
     17 C3'         1.9404   -0.7419    0.5596 C.3       1 ATP         0.1111
     18 O3'         2.7418   -0.8086    1.7389 O.3       1 ATP        -0.2728
     19 C2'         0.7477    0.1630    0.7858 C.3       1 ATP         0.1111
     20 O2'         0.1373   -0.0577    2.0407 O.3       1 ATP        -0.2728
     21 C1'         1.3733    1.5427    0.6747 C.3       1 ATP         0.2693
     22 N9          0.4520    2.5240    0.1767 N.pl3     1 ATP        -0.3222
     23 C8         -0.8593    2.9753    0.8343 C.ar      1 ATP         0.1640
     24 N7         -1.4457    3.9121    0.0693 N.2       1 ATP        -0.1640
     25 C5         -0.5581    4.0180   -0.9686 C.ar      1 ATP         0.0820
     26 C6         -0.7663    4.9543   -2.1092 C.ar      1 ATP         0.1640
     27 N6         -1.8429    5.7238   -2.1440 N.pl3     1 ATP        -0.4916
     28 N1          0.1993    4.9263   -3.0311 N.pl3     1 ATP        -0.4390
     29 C2          1.3416    4.0491   -2.9069 C.ar      1 ATP         0.5691
     30 N3          1.5401    3.2284   -1.9225 N.ar      1 ATP        -0.4283
     31 C4          0.5563    3.2529   -0.9772 C.ar      1 ATP         0.2226
     32 H5'1        1.2163   -0.0770   -2.0471 H         1 ATP        -0.0393
     33 H5'2        2.4655   -1.3443   -2.1563 H         1 ATP        -0.0393
     34 H4'         3.8040   -0.1399   -0.4044 H         1 ATP        -0.0393
     35 H3'         1.6768   -1.7637    0.2732 H         1 ATP        -0.0393
     36 HO3'        2.2231   -1.2979    2.3952 H         1 ATP         0.2010
     37 H2'         0.0002   -0.0084   -0.0014 H         1 ATP        -0.0393
     38 HO2'       -0.1554   -0.9852    2.0577 H         1 ATP         0.2010
     39 H1'         1.7718    1.9211    1.6015 H         1 ATP        -0.0393
     40 H8         -1.3368    2.6590    1.7670 H         1 ATP         0.0000
     41 HN61       -2.5230    5.6776   -1.3990 H         1 ATP         0.2048
     42 HN62       -1.9865    6.3594   -2.9154 H         1 ATP         0.2048
     43 H2          2.0529    4.1368   -3.7423 H         1 ATP        -0.1292
     44 H44         0.1054    5.5465   -3.8301 H         1 ATP         0.2048
@<TRIPOS>BOND
     1    1    2 2
     2    1    3 1
     3    1    4 1
     4    1    8 1
     5    5    6 2
     6    5    7 1
     7    5    8 1
     8    5   12 1
     9    9   10 2
    10    9   11 1
    11    9   12 1
    12    9   13 1
    13   13   14 1
    14   14   15 1
    15   14   32 1
    16   14   33 1
    17   15   16 1
    18   15   17 1
    19   15   34 1
    20   16   21 1
    21   17   18 1
    22   17   19 1
    23   17   35 1
    24   18   36 1
    25   19   20 1
    26   19   21 1
    27   19   37 1
    28   20   38 1
    29   21   22 1
    30   21   39 1
    31   22   23 ar
    32   22   31 ar
    33   23   24 ar
    34   23   40 1
    35   24   25 ar
    36   25   26 ar
    37   25   31 ar
    38   26   27 1
    39   26   28 ar
    40   27   41 1
    41   27   42 1
    42   28   29 ar
    43   28   44 1
    44   29   30 ar
    45   29   43 1
    46   30   31 ar
@<TRIPOS>SUBSTRUCTURE
     1 ATP         1 GROUP 0 A     ****
@<TRIPOS>MOLECULE
[[[5-(6-amino-1,8-dihydropurine-6,8-diylium-7-id-9-yl)-3,4-dihydroxy-tetrahydrofuran-2-yl]methoxy-oxido-phosphoryl]oxy-oxido-phosphoryl] phosphate
   44    46     1     0     0
SMALL
USER_CHARGES

@<TRIPOS>ATOM
      1 PG          7.4449   -0.7128   -3.2134 P.3       1 ATP        -1.1921
      2 O1G         8.1721   -2.0217   -3.5026 O.co2     1 ATP         0.3195
      3 O2G         8.3514    0.5124   -3.1618 O.co2     1 ATP         0.3195
      4 O3G         6.4381   -0.7951   -2.0707 O.co2     1 ATP         0.3195
      5 PB          5.3226   -1.3949   -5.1843 P.3       1 ATP        -1.1062
      6 O1B         4.6623   -0.6347   -6.3129 O.co2     1 ATP         0.3195
      7 O2B         5.8580   -2.7942   -5.3906 O.co2     1 ATP         0.3195
      8 O3B         6.5069   -0.4671   -4.5475 O.3       1 ATP         0.4672
      9 PA          2.8604   -2.1325   -3.7186 P.3       1 ATP        -1.1062
     10 O1A         3.0741   -3.6304   -3.7186 O.co2     1 ATP         0.3195
     11 O2A         1.8730   -1.4921   -4.6699 O.co2     1 ATP         0.3195
     12 O3A         4.3126   -1.4064   -3.9016 O.3       1 ATP         0.4672
     13 O5'         2.5245   -1.6648   -2.1878 O.3       1 ATP         0.1618
     14 C5'         2.2816   -0.2918   -1.9206 C.3       1 ATP         0.1504
     15 C4'         2.7248    0.0226   -0.4980 C.3       1 ATP         0.1111
     16 O4'         2.4697    1.4219   -0.2462 O.3       1 ATP        -0.1436
     17 C3'         1.9404   -0.7419    0.5596 C.3       1 ATP         0.1111
     18 O3'         2.7418   -0.8086    1.7389 O.3       1 ATP        -0.2728
     19 C2'         0.7477    0.1630    0.7858 C.3       1 ATP         0.1111
     20 O2'         0.1373   -0.0577    2.0407 O.3       1 ATP        -0.2728
     21 C1'         1.3733    1.5427    0.6747 C.3       1 ATP         0.2693
     22 N9          0.4520    2.5240    0.1767 N.pl3     1 ATP        -0.3222
     23 C8          0.1798    2.8712   -1.2933 C.ar      1 ATP         0.1640
     24 N7         -0.7494    3.8400   -1.3610 N.2       1 ATP        -0.1640
     25 C5         -1.0173    4.0603   -0.0358 C.ar      1 ATP         0.0820
     26 C6         -2.0105    5.0717    0.4241 C.ar      1 ATP         0.1640
     27 N6         -2.6723    5.7982   -0.4628 N.pl3     1 ATP        -0.4916
     28 N1         -2.1445    5.1522    1.7502 N.pl3     1 ATP        -0.4390
     29 C2         -1.3755    4.3143    2.6427 C.ar      1 ATP         0.5691
     30 N3         -0.5075    3.4292    2.2616 N.ar      1 ATP        -0.4283
     31 C4         -0.3667    3.3425    0.9070 C.ar      1 ATP         0.2226
     32 H5'1        2.8432    0.3119   -2.6398 H         1 ATP        -0.0393
     33 H5'2        1.2128   -0.0927   -2.0428 H         1 ATP        -0.0393
     34 H4'         3.8040   -0.1399   -0.4044 H         1 ATP        -0.0393
     35 H3'         1.6768   -1.7637    0.2732 H         1 ATP        -0.0393
     36 HO3'        2.2231   -1.2979    2.3952 H         1 ATP         0.2010
     37 H2'         0.0002   -0.0084   -0.0014 H         1 ATP        -0.0393
     38 HO2'       -0.6132    0.5577    2.1063 H         1 ATP         0.2010
     39 H1'         1.7718    1.9211    1.6015 H         1 ATP        -0.0393
     40 H8          0.6089    2.4651   -2.2147 H         1 ATP         0.0000
     41 HN61       -2.5055    5.6680   -1.4503 H         1 ATP         0.2048
     42 HN62       -3.3462    6.4841   -0.1542 H         1 ATP         0.2048
     43 H2         -1.5932    4.4937    3.7066 H         1 ATP        -0.1292
     44 H44        -2.8098    5.8270    2.1160 H         1 ATP         0.2048
@<TRIPOS>BOND
     1    1    2 2
     2    1    3 1
     3    1    4 1
     4    1    8 1
     5    5    6 2
     6    5    7 1
     7    5    8 1
     8    5   12 1
     9    9   10 2
    10    9   11 1
    11    9   12 1
    12    9   13 1
    13   13   14 1
    14   14   15 1
    15   14   32 1
    16   14   33 1
    17   15   16 1
    18   15   17 1
    19   15   34 1
    20   16   21 1
    21   17   18 1
    22   17   19 1
    23   17   35 1
    24   18   36 1
    25   19   20 1
    26   19   21 1
    27   19   37 1
    28   20   38 1
    29   21   22 1
    30   21   39 1
    31   22   23 ar
    32   22   31 ar
    33   23   24 ar
    34   23   40 1
    35   24   25 ar
    36   25   26 ar
    37   25   31 ar
    38   26   27 1
    39   26   28 ar
    40   27   41 1
    41   27   42 1
    42   28   29 ar
    43   28   44 1
    44   29   30 ar
    45   29   43 1
    46   30   31 ar
@<TRIPOS>SUBSTRUCTURE
     1 ATP         1 GROUP 0 A     ****
@<TRIPOS>MOLECULE
[[[5-(6-amino-1,8-dihydropurine-6,8-diylium-7-id-9-yl)-3,4-dihydroxy-tetrahydrofuran-2-yl]methoxy-oxido-phosphoryl]oxy-oxido-phosphoryl] phosphate
   44    46     1     0     0
SMALL
USER_CHARGES

@<TRIPOS>ATOM
      1 PG          6.5155   -3.9184   -4.8519 P.3       1 ATP        -1.1921
      2 O1G         7.1641   -3.7115   -3.4872 O.co2     1 ATP         0.3195
      3 O2G         6.0686   -5.3505   -5.1253 O.co2     1 ATP         0.3195
      4 O3G         7.2666   -3.2655   -6.0075 O.co2     1 ATP         0.3195
      5 PB          4.8597   -1.4720   -4.4947 P.3       1 ATP        -1.1062
      6 O1B         5.2806   -1.1471   -3.0788 O.co2     1 ATP         0.3195
      7 O2B         5.3983   -0.6890   -5.6712 O.co2     1 ATP         0.3195
      8 O3B         5.1075   -3.0641   -4.7649 O.3       1 ATP         0.4672
      9 PA          2.1375   -2.2725   -3.6560 P.3       1 ATP        -1.1062
     10 O1A         2.4976   -3.7422   -3.6687 O.co2     1 ATP         0.3195
     11 O2A         0.7481   -1.8133   -4.0418 O.co2     1 ATP         0.3195
     12 O3A         3.2287   -1.4684   -4.5683 O.3       1 ATP         0.4672
     13 O5'         2.5245   -1.6648   -2.1878 O.3       1 ATP         0.1618
     14 C5'         2.2816   -0.2918   -1.9206 C.3       1 ATP         0.1504
     15 C4'         2.7248    0.0226   -0.4980 C.3       1 ATP         0.1111
     16 O4'         2.4697    1.4219   -0.2462 O.3       1 ATP        -0.1436
     17 C3'         1.9404   -0.7419    0.5596 C.3       1 ATP         0.1111
     18 O3'         2.7418   -0.8086    1.7389 O.3       1 ATP        -0.2728
     19 C2'         0.7477    0.1630    0.7858 C.3       1 ATP         0.1111
     20 O2'         0.1373   -0.0577    2.0407 O.3       1 ATP        -0.2728
     21 C1'         1.3733    1.5427    0.6747 C.3       1 ATP         0.2693
     22 N9          0.4520    2.5240    0.1767 N.pl3     1 ATP        -0.3222
     23 C8          0.1798    2.8712   -1.2933 C.ar      1 ATP         0.1640
     24 N7         -0.7494    3.8400   -1.3610 N.2       1 ATP        -0.1640
     25 C5         -1.0173    4.0603   -0.0358 C.ar      1 ATP         0.0820
     26 C6         -2.0105    5.0717    0.4241 C.ar      1 ATP         0.1640
     27 N6         -2.6723    5.7982   -0.4628 N.pl3     1 ATP        -0.4916
     28 N1         -2.1445    5.1522    1.7502 N.pl3     1 ATP        -0.4390
     29 C2         -1.3755    4.3143    2.6427 C.ar      1 ATP         0.5691
     30 N3         -0.5075    3.4292    2.2616 N.ar      1 ATP        -0.4283
     31 C4         -0.3667    3.3425    0.9070 C.ar      1 ATP         0.2226
     32 H5'1        2.8432    0.3119   -2.6398 H         1 ATP        -0.0393
     33 H5'2        1.2128   -0.0927   -2.0428 H         1 ATP        -0.0393
     34 H4'         3.8040   -0.1399   -0.4044 H         1 ATP        -0.0393
     35 H3'         1.6768   -1.7637    0.2732 H         1 ATP        -0.0393
     36 HO3'        2.2231   -1.2979    2.3952 H         1 ATP         0.2010
     37 H2'         0.0002   -0.0084   -0.0014 H         1 ATP        -0.0393
     38 HO2'       -0.6132    0.5577    2.1063 H         1 ATP         0.2010
     39 H1'         1.7718    1.9211    1.6015 H         1 ATP        -0.0393
     40 H8          0.6089    2.4651   -2.2147 H         1 ATP         0.0000
     41 HN61       -2.5055    5.6680   -1.4503 H         1 ATP         0.2048
     42 HN62       -3.3462    6.4841   -0.1542 H         1 ATP         0.2048
     43 H2         -1.5932    4.4937    3.7066 H         1 ATP        -0.1292
     44 H44        -2.8098    5.8270    2.1160 H         1 ATP         0.2048
@<TRIPOS>BOND
     1    1    2 2
     2    1    3 1
     3    1    4 1
     4    1    8 1
     5    5    6 2
     6    5    7 1
     7    5    8 1
     8    5   12 1
     9    9   10 2
    10    9   11 1
    11    9   12 1
    12    9   13 1
    13   13   14 1
    14   14   15 1
    15   14   32 1
    16   14   33 1
    17   15   16 1
    18   15   17 1
    19   15   34 1
    20   16   21 1
    21   17   18 1
    22   17   19 1
    23   17   35 1
    24   18   36 1
    25   19   20 1
    26   19   21 1
    27   19   37 1
    28   20   38 1
    29   21   22 1
    30   21   39 1
    31   22   23 ar
    32   22   31 ar
    33   23   24 ar
    34   23   40 1
    35   24   25 ar
    36   25   26 ar
    37   25   31 ar
    38   26   27 1
    39   26   28 ar
    40   27   41 1
    41   27   42 1
    42   28   29 ar
    43   28   44 1
    44   29   30 ar
    45   29   43 1
    46   30   31 ar
@<TRIPOS>SUBSTRUCTURE
     1 ATP         1 GROUP 0 A     ****
@<TRIPOS>MOLECULE
[[[5-(6-amino-1,8-dihydropurine-6,8-diylium-7-id-9-yl)-3,4-dihydroxy-tetrahydrofuran-2-yl]methoxy-oxido-phosphoryl]oxy-oxido-phosphoryl] phosphate
   44    46     1     0     0
SMALL
USER_CHARGES

@<TRIPOS>ATOM
      1 PG          0.1880   -2.7901   -5.5104 P.3       1 ATP        -1.1921
      2 O1G         0.1840   -1.9519   -4.2364 O.co2     1 ATP         0.3195
      3 O2G        -1.1034   -2.7134   -6.3179 O.co2     1 ATP         0.3195
      4 O3G         0.7289   -4.2044   -5.3277 O.co2     1 ATP         0.3195
      5 PB          2.9039   -1.8005   -6.2163 P.3       1 ATP        -1.1062
      6 O1B         3.5595   -3.1146   -5.8546 O.co2     1 ATP         0.3195
      7 O2B         3.4427   -0.9385   -7.3360 O.co2     1 ATP         0.3195
      8 O3B         1.3114   -2.0601   -6.4721 O.3       1 ATP         0.4672
      9 PA          3.9556   -0.2056   -3.9568 P.3       1 ATP        -1.1062
     10 O1A         4.6245    0.8766   -4.7760 O.co2     1 ATP         0.3195
     11 O2A         4.7728   -1.3040   -3.3120 O.co2     1 ATP         0.3195
     12 O3A         2.7834   -0.8885   -4.8674 O.3       1 ATP         0.4672
     13 O5'         3.0213    0.5153   -2.8245 O.3       1 ATP         0.1618
     14 C5'         2.2816   -0.2918   -1.9206 C.3       1 ATP         0.1504
     15 C4'         2.7248    0.0226   -0.4980 C.3       1 ATP         0.1111
     16 O4'         2.4697    1.4219   -0.2462 O.3       1 ATP        -0.1436
     17 C3'         1.9404   -0.7419    0.5596 C.3       1 ATP         0.1111
     18 O3'         2.7418   -0.8086    1.7389 O.3       1 ATP        -0.2728
     19 C2'         0.7477    0.1630    0.7858 C.3       1 ATP         0.1111
     20 O2'         0.1373   -0.0577    2.0407 O.3       1 ATP        -0.2728
     21 C1'         1.3733    1.5427    0.6747 C.3       1 ATP         0.2693
     22 N9          0.4520    2.5240    0.1767 N.pl3     1 ATP        -0.3222
     23 C8          0.1798    2.8712   -1.2933 C.ar      1 ATP         0.1640
     24 N7         -0.7494    3.8400   -1.3610 N.2       1 ATP        -0.1640
     25 C5         -1.0173    4.0603   -0.0358 C.ar      1 ATP         0.0820
     26 C6         -2.0105    5.0717    0.4241 C.ar      1 ATP         0.1640
     27 N6         -2.6723    5.7982   -0.4628 N.pl3     1 ATP        -0.4916
     28 N1         -2.1445    5.1522    1.7502 N.pl3     1 ATP        -0.4390
     29 C2         -1.3755    4.3143    2.6427 C.ar      1 ATP         0.5691
     30 N3         -0.5075    3.4292    2.2616 N.ar      1 ATP        -0.4283
     31 C4         -0.3667    3.3425    0.9070 C.ar      1 ATP         0.2226
     32 H5'1        1.2163   -0.0770   -2.0471 H         1 ATP        -0.0393
     33 H5'2        2.4655   -1.3443   -2.1563 H         1 ATP        -0.0393
     34 H4'         3.8040   -0.1399   -0.4044 H         1 ATP        -0.0393
     35 H3'         1.6768   -1.7637    0.2732 H         1 ATP        -0.0393
     36 HO3'        2.2231   -1.2979    2.3952 H         1 ATP         0.2010
     37 H2'         0.0002   -0.0084   -0.0014 H         1 ATP        -0.0393
     38 HO2'       -0.6132    0.5577    2.1063 H         1 ATP         0.2010
     39 H1'         1.7718    1.9211    1.6015 H         1 ATP        -0.0393
     40 H8          0.6089    2.4651   -2.2147 H         1 ATP         0.0000
     41 HN61       -2.5055    5.6680   -1.4503 H         1 ATP         0.2048
     42 HN62       -3.3462    6.4841   -0.1542 H         1 ATP         0.2048
     43 H2         -1.5932    4.4937    3.7066 H         1 ATP        -0.1292
     44 H44        -2.8098    5.8270    2.1160 H         1 ATP         0.2048
@<TRIPOS>BOND
     1    1    2 2
     2    1    3 1
     3    1    4 1
     4    1    8 1
     5    5    6 2
     6    5    7 1
     7    5    8 1
     8    5   12 1
     9    9   10 2
    10    9   11 1
    11    9   12 1
    12    9   13 1
    13   13   14 1
    14   14   15 1
    15   14   32 1
    16   14   33 1
    17   15   16 1
    18   15   17 1
    19   15   34 1
    20   16   21 1
    21   17   18 1
    22   17   19 1
    23   17   35 1
    24   18   36 1
    25   19   20 1
    26   19   21 1
    27   19   37 1
    28   20   38 1
    29   21   22 1
    30   21   39 1
    31   22   23 ar
    32   22   31 ar
    33   23   24 ar
    34   23   40 1
    35   24   25 ar
    36   25   26 ar
    37   25   31 ar
    38   26   27 1
    39   26   28 ar
    40   27   41 1
    41   27   42 1
    42   28   29 ar
    43   28   44 1
    44   29   30 ar
    45   29   43 1
    46   30   31 ar
@<TRIPOS>SUBSTRUCTURE
     1 ATP         1 GROUP 0 A     ****
@<TRIPOS>MOLECULE
[[[5-(6-amino-1,8-dihydropurine-6,8-diylium-7-id-9-yl)-3,4-dihydroxy-tetrahydrofuran-2-yl]methoxy-oxido-phosphoryl]oxy-oxido-phosphoryl] phosphate
   44    46     1     0     0
SMALL
USER_CHARGES

@<TRIPOS>ATOM
      1 PG          0.2529   -2.8672   -5.5362 P.3       1 ATP        -1.1921
      2 O1G        -0.8762   -2.3048   -4.6791 O.co2     1 ATP         0.3195
      3 O2G        -0.2109   -3.7725   -6.6724 O.co2     1 ATP         0.3195
      4 O3G         1.4303   -3.4176   -4.7382 O.co2     1 ATP         0.3195
      5 PB          1.5490   -0.1925   -5.6781 P.3       1 ATP        -1.1062
      6 O1B         2.1184    0.6332   -6.8102 O.co2     1 ATP         0.3195
      7 O2B         0.5902    0.4092   -4.6751 O.co2     1 ATP         0.3195
      8 O3B         0.8783   -1.5462   -6.3001 O.3       1 ATP         0.4672
      9 PA          3.9556   -0.2056   -3.9568 P.3       1 ATP        -1.1062
     10 O1A         4.6245    0.8766   -4.7760 O.co2     1 ATP         0.3195
     11 O2A         4.7728   -1.3040   -3.3120 O.co2     1 ATP         0.3195
     12 O3A         2.7834   -0.8885   -4.8674 O.3       1 ATP         0.4672
     13 O5'         3.0213    0.5153   -2.8245 O.3       1 ATP         0.1618
     14 C5'         2.2816   -0.2918   -1.9206 C.3       1 ATP         0.1504
     15 C4'         2.7248    0.0226   -0.4980 C.3       1 ATP         0.1111
     16 O4'         2.4697    1.4219   -0.2462 O.3       1 ATP        -0.1436
     17 C3'         1.9404   -0.7419    0.5596 C.3       1 ATP         0.1111
     18 O3'         2.7418   -0.8086    1.7389 O.3       1 ATP        -0.2728
     19 C2'         0.7477    0.1630    0.7858 C.3       1 ATP         0.1111
     20 O2'         0.1373   -0.0577    2.0407 O.3       1 ATP        -0.2728
     21 C1'         1.3733    1.5427    0.6747 C.3       1 ATP         0.2693
     22 N9          0.4520    2.5240    0.1767 N.pl3     1 ATP        -0.3222
     23 C8          0.1798    2.8712   -1.2933 C.ar      1 ATP         0.1640
     24 N7         -0.7494    3.8400   -1.3610 N.2       1 ATP        -0.1640
     25 C5         -1.0173    4.0603   -0.0358 C.ar      1 ATP         0.0820
     26 C6         -2.0105    5.0717    0.4241 C.ar      1 ATP         0.1640
     27 N6         -2.6723    5.7982   -0.4628 N.pl3     1 ATP        -0.4916
     28 N1         -2.1445    5.1522    1.7502 N.pl3     1 ATP        -0.4390
     29 C2         -1.3755    4.3143    2.6427 C.ar      1 ATP         0.5691
     30 N3         -0.5075    3.4292    2.2616 N.ar      1 ATP        -0.4283
     31 C4         -0.3667    3.3425    0.9070 C.ar      1 ATP         0.2226
     32 H5'1        1.2163   -0.0770   -2.0471 H         1 ATP        -0.0393
     33 H5'2        2.4655   -1.3443   -2.1563 H         1 ATP        -0.0393
     34 H4'         3.8040   -0.1399   -0.4044 H         1 ATP        -0.0393
     35 H3'         1.6768   -1.7637    0.2732 H         1 ATP        -0.0393
     36 HO3'        2.2231   -1.2979    2.3952 H         1 ATP         0.2010
     37 H2'         0.0002   -0.0084   -0.0014 H         1 ATP        -0.0393
     38 HO2'       -0.1554   -0.9852    2.0577 H         1 ATP         0.2010
     39 H1'         1.7718    1.9211    1.6015 H         1 ATP        -0.0393
     40 H8          0.6089    2.4651   -2.2147 H         1 ATP         0.0000
     41 HN61       -2.5055    5.6680   -1.4503 H         1 ATP         0.2048
     42 HN62       -3.3462    6.4841   -0.1542 H         1 ATP         0.2048
     43 H2         -1.5932    4.4937    3.7066 H         1 ATP        -0.1292
     44 H44        -2.8098    5.8270    2.1160 H         1 ATP         0.2048
@<TRIPOS>BOND
     1    1    2 2
     2    1    3 1
     3    1    4 1
     4    1    8 1
     5    5    6 2
     6    5    7 1
     7    5    8 1
     8    5   12 1
     9    9   10 2
    10    9   11 1
    11    9   12 1
    12    9   13 1
    13   13   14 1
    14   14   15 1
    15   14   32 1
    16   14   33 1
    17   15   16 1
    18   15   17 1
    19   15   34 1
    20   16   21 1
    21   17   18 1
    22   17   19 1
    23   17   35 1
    24   18   36 1
    25   19   20 1
    26   19   21 1
    27   19   37 1
    28   20   38 1
    29   21   22 1
    30   21   39 1
    31   22   23 ar
    32   22   31 ar
    33   23   24 ar
    34   23   40 1
    35   24   25 ar
    36   25   26 ar
    37   25   31 ar
    38   26   27 1
    39   26   28 ar
    40   27   41 1
    41   27   42 1
    42   28   29 ar
    43   28   44 1
    44   29   30 ar
    45   29   43 1
    46   30   31 ar
@<TRIPOS>SUBSTRUCTURE
     1 ATP         1 GROUP 0 A     ****
@<TRIPOS>MOLECULE
[[[5-(6-amino-1,8-dihydropurine-6,8-diylium-7-id-9-yl)-3,4-dihydroxy-tetrahydrofuran-2-yl]methoxy-oxido-phosphoryl]oxy-oxido-phosphoryl] phosphate
   44    46     1     0     0
SMALL
USER_CHARGES

@<TRIPOS>ATOM
      1 PG          3.6117    4.2544   -7.4119 P.3       1 ATP        -1.1921
      2 O1G         3.6533    5.6877   -6.8925 O.co2     1 ATP         0.3195
      3 O2G         4.9470    3.7359   -7.9350 O.co2     1 ATP         0.3195
      4 O3G         2.4237    3.9514   -8.3190 O.co2     1 ATP         0.3195
      5 PB          2.0634    3.3787   -5.0265 P.3       1 ATP        -1.1062
      6 O1B         2.0878    4.6915   -4.2757 O.co2     1 ATP         0.3195
      7 O2B         0.8199    2.9140   -5.7512 O.co2     1 ATP         0.3195
      8 O3B         3.3223    3.3445   -6.0672 O.3       1 ATP         0.4672
      9 PA          2.8629    0.6171   -4.3271 P.3       1 ATP        -1.1062
     10 O1A         4.0860    0.5371   -5.2145 O.co2     1 ATP         0.3195
     11 O2A         1.5714   -0.0625   -4.7271 O.co2     1 ATP         0.3195
     12 O3A         2.5543    2.1918   -4.0188 O.3       1 ATP         0.4672
     13 O5'         3.2903    0.1346   -2.8241 O.3       1 ATP         0.1618
     14 C5'         2.2816   -0.2918   -1.9206 C.3       1 ATP         0.1504
     15 C4'         2.7248    0.0226   -0.4980 C.3       1 ATP         0.1111
     16 O4'         2.4697    1.4219   -0.2462 O.3       1 ATP        -0.1436
     17 C3'         1.9404   -0.7419    0.5596 C.3       1 ATP         0.1111
     18 O3'         2.7418   -0.8086    1.7389 O.3       1 ATP        -0.2728
     19 C2'         0.7477    0.1630    0.7858 C.3       1 ATP         0.1111
     20 O2'         0.1373   -0.0577    2.0407 O.3       1 ATP        -0.2728
     21 C1'         1.3733    1.5427    0.6747 C.3       1 ATP         0.2693
     22 N9          0.4520    2.5240    0.1767 N.pl3     1 ATP        -0.3222
     23 C8          0.1798    2.8712   -1.2933 C.ar      1 ATP         0.1640
     24 N7         -0.7494    3.8400   -1.3610 N.2       1 ATP        -0.1640
     25 C5         -1.0173    4.0603   -0.0358 C.ar      1 ATP         0.0820
     26 C6         -2.0105    5.0717    0.4241 C.ar      1 ATP         0.1640
     27 N6         -2.6723    5.7982   -0.4628 N.pl3     1 ATP        -0.4916
     28 N1         -2.1445    5.1522    1.7502 N.pl3     1 ATP        -0.4390
     29 C2         -1.3755    4.3143    2.6427 C.ar      1 ATP         0.5691
     30 N3         -0.5075    3.4292    2.2616 N.ar      1 ATP        -0.4283
     31 C4         -0.3667    3.3425    0.9070 C.ar      1 ATP         0.2226
     32 H5'1        1.3514    0.2330   -2.1577 H         1 ATP        -0.0393
     33 H5'2        2.1280   -1.3678   -2.0460 H         1 ATP        -0.0393
     34 H4'         3.8040   -0.1399   -0.4044 H         1 ATP        -0.0393
     35 H3'         1.6768   -1.7637    0.2732 H         1 ATP        -0.0393
     36 HO3'        3.5553   -1.2733    1.4913 H         1 ATP         0.2010
     37 H2'         0.0002   -0.0084   -0.0014 H         1 ATP        -0.0393
     38 HO2'       -0.1554   -0.9852    2.0577 H         1 ATP         0.2010
     39 H1'         1.7718    1.9211    1.6015 H         1 ATP        -0.0393
     40 H8          0.6089    2.4651   -2.2147 H         1 ATP         0.0000
     41 HN61       -2.5055    5.6680   -1.4503 H         1 ATP         0.2048
     42 HN62       -3.3462    6.4841   -0.1542 H         1 ATP         0.2048
     43 H2         -1.5932    4.4937    3.7066 H         1 ATP        -0.1292
     44 H44        -2.8098    5.8270    2.1160 H         1 ATP         0.2048
@<TRIPOS>BOND
     1    1    2 2
     2    1    3 1
     3    1    4 1
     4    1    8 1
     5    5    6 2
     6    5    7 1
     7    5    8 1
     8    5   12 1
     9    9   10 2
    10    9   11 1
    11    9   12 1
    12    9   13 1
    13   13   14 1
    14   14   15 1
    15   14   32 1
    16   14   33 1
    17   15   16 1
    18   15   17 1
    19   15   34 1
    20   16   21 1
    21   17   18 1
    22   17   19 1
    23   17   35 1
    24   18   36 1
    25   19   20 1
    26   19   21 1
    27   19   37 1
    28   20   38 1
    29   21   22 1
    30   21   39 1
    31   22   23 ar
    32   22   31 ar
    33   23   24 ar
    34   23   40 1
    35   24   25 ar
    36   25   26 ar
    37   25   31 ar
    38   26   27 1
    39   26   28 ar
    40   27   41 1
    41   27   42 1
    42   28   29 ar
    43   28   44 1
    44   29   30 ar
    45   29   43 1
    46   30   31 ar
@<TRIPOS>SUBSTRUCTURE
     1 ATP         1 GROUP 0 A     ****
@<TRIPOS>MOLECULE
[[[5-(6-amino-1,8-dihydropurine-6,8-diylium-7-id-9-yl)-3,4-dihydroxy-tetrahydrofuran-2-yl]methoxy-oxido-phosphoryl]oxy-oxido-phosphoryl] phosphate
   44    46     1     0     0
SMALL
USER_CHARGES

@<TRIPOS>ATOM
      1 PG         -0.7067   -1.0614   -7.4871 P.3       1 ATP        -1.1921
      2 O1G        -0.1482   -0.3697   -8.7262 O.co2     1 ATP         0.3195
      3 O2G        -0.3790   -2.5479   -7.3950 O.co2     1 ATP         0.3195
      4 O3G        -2.1618   -0.7211   -7.1824 O.co2     1 ATP         0.3195
      5 PB          0.2195    1.1748   -5.7563 P.3       1 ATP        -1.1062
      6 O1B         0.9437    1.9686   -6.8207 O.co2     1 ATP         0.3195
      7 O2B        -1.1353    1.6079   -5.2422 O.co2     1 ATP         0.3195
      8 O3B         0.1264   -0.3845   -6.2351 O.3       1 ATP         0.4672
      9 PA          2.7413    0.3775   -4.4298 P.3       1 ATP        -1.1062
     10 O1A         3.6560    1.3416   -5.1533 O.co2     1 ATP         0.3195
     11 O2A         2.7031   -1.0864   -4.8115 O.co2     1 ATP         0.3195
     12 O3A         1.2211    0.9740   -4.4828 O.3       1 ATP         0.4672
     13 O5'         3.0213    0.5153   -2.8245 O.3       1 ATP         0.1618
     14 C5'         2.2816   -0.2918   -1.9206 C.3       1 ATP         0.1504
     15 C4'         2.7248    0.0226   -0.4980 C.3       1 ATP         0.1111
     16 O4'         2.4697    1.4219   -0.2462 O.3       1 ATP        -0.1436
     17 C3'         1.9404   -0.7419    0.5596 C.3       1 ATP         0.1111
     18 O3'         2.7418   -0.8086    1.7389 O.3       1 ATP        -0.2728
     19 C2'         0.7477    0.1630    0.7858 C.3       1 ATP         0.1111
     20 O2'         0.1373   -0.0577    2.0407 O.3       1 ATP        -0.2728
     21 C1'         1.3733    1.5427    0.6747 C.3       1 ATP         0.2693
     22 N9          0.4520    2.5240    0.1767 N.pl3     1 ATP        -0.3222
     23 C8         -0.8593    2.9753    0.8343 C.ar      1 ATP         0.1640
     24 N7         -1.4457    3.9121    0.0693 N.2       1 ATP        -0.1640
     25 C5         -0.5581    4.0180   -0.9686 C.ar      1 ATP         0.0820
     26 C6         -0.7663    4.9543   -2.1092 C.ar      1 ATP         0.1640
     27 N6         -1.8429    5.7238   -2.1440 N.pl3     1 ATP        -0.4916
     28 N1          0.1993    4.9263   -3.0311 N.pl3     1 ATP        -0.4390
     29 C2          1.3416    4.0491   -2.9069 C.ar      1 ATP         0.5691
     30 N3          1.5401    3.2284   -1.9225 N.ar      1 ATP        -0.4283
     31 C4          0.5563    3.2529   -0.9772 C.ar      1 ATP         0.2226
     32 H5'1        1.2163   -0.0770   -2.0471 H         1 ATP        -0.0393
     33 H5'2        2.4655   -1.3443   -2.1563 H         1 ATP        -0.0393
     34 H4'         3.8040   -0.1399   -0.4044 H         1 ATP        -0.0393
     35 H3'         1.6768   -1.7637    0.2732 H         1 ATP        -0.0393
     36 HO3'        2.2231   -1.2979    2.3952 H         1 ATP         0.2010
     37 H2'         0.0002   -0.0084   -0.0014 H         1 ATP        -0.0393
     38 HO2'       -0.1554   -0.9852    2.0577 H         1 ATP         0.2010
     39 H1'         1.7718    1.9211    1.6015 H         1 ATP        -0.0393
     40 H8         -1.3368    2.6590    1.7670 H         1 ATP         0.0000
     41 HN61       -2.5230    5.6776   -1.3990 H         1 ATP         0.2048
     42 HN62       -1.9865    6.3594   -2.9154 H         1 ATP         0.2048
     43 H2          2.0529    4.1368   -3.7423 H         1 ATP        -0.1292
     44 H44         0.1054    5.5465   -3.8301 H         1 ATP         0.2048
@<TRIPOS>BOND
     1    1    2 2
     2    1    3 1
     3    1    4 1
     4    1    8 1
     5    5    6 2
     6    5    7 1
     7    5    8 1
     8    5   12 1
     9    9   10 2
    10    9   11 1
    11    9   12 1
    12    9   13 1
    13   13   14 1
    14   14   15 1
    15   14   32 1
    16   14   33 1
    17   15   16 1
    18   15   17 1
    19   15   34 1
    20   16   21 1
    21   17   18 1
    22   17   19 1
    23   17   35 1
    24   18   36 1
    25   19   20 1
    26   19   21 1
    27   19   37 1
    28   20   38 1
    29   21   22 1
    30   21   39 1
    31   22   23 ar
    32   22   31 ar
    33   23   24 ar
    34   23   40 1
    35   24   25 ar
    36   25   26 ar
    37   25   31 ar
    38   26   27 1
    39   26   28 ar
    40   27   41 1
    41   27   42 1
    42   28   29 ar
    43   28   44 1
    44   29   30 ar
    45   29   43 1
    46   30   31 ar
@<TRIPOS>SUBSTRUCTURE
     1 ATP         1 GROUP 0 A     ****
@<TRIPOS>MOLECULE
[[[5-(6-amino-1,8-dihydropurine-6,8-diylium-7-id-9-yl)-3,4-dihydroxy-tetrahydrofuran-2-yl]methoxy-oxido-phosphoryl]oxy-oxido-phosphoryl] phosphate
   44    46     1     0     0
SMALL
USER_CHARGES

@<TRIPOS>ATOM
      1 PG          2.4001    0.8780   -6.6247 P.3       1 ATP        -1.1921
      2 O1G         2.8174    1.0158   -5.1644 O.co2     1 ATP         0.3195
      3 O2G         3.4381    1.3753   -7.6251 O.co2     1 ATP         0.3195
      4 O3G         0.9771    1.3431   -6.9159 O.co2     1 ATP         0.3195
      5 PB          1.4367   -1.8957   -6.1431 P.3       1 ATP        -1.1062
      6 O1B        -0.0169   -1.4831   -6.2072 O.co2     1 ATP         0.3195
      7 O2B         1.8868   -3.2561   -6.6270 O.co2     1 ATP         0.3195
      8 O3B         2.3414   -0.7506   -6.8775 O.3       1 ATP         0.4672
      9 PA          1.5549   -2.4565   -3.2403 P.3       1 ATP        -1.1062
     10 O1A         2.0329   -3.8889   -3.3372 O.co2     1 ATP         0.3195
     11 O2A         0.1079   -2.1437   -2.9265 O.co2     1 ATP         0.3195
     12 O3A         1.9735   -1.6812   -4.6162 O.3       1 ATP         0.4672
     13 O5'         2.5245   -1.6648   -2.1878 O.3       1 ATP         0.1618
     14 C5'         2.2816   -0.2918   -1.9206 C.3       1 ATP         0.1504
     15 C4'         2.7248    0.0226   -0.4980 C.3       1 ATP         0.1111
     16 O4'         2.4697    1.4219   -0.2462 O.3       1 ATP        -0.1436
     17 C3'         1.9404   -0.7419    0.5596 C.3       1 ATP         0.1111
     18 O3'         2.7418   -0.8086    1.7389 O.3       1 ATP        -0.2728
     19 C2'         0.7477    0.1630    0.7858 C.3       1 ATP         0.1111
     20 O2'         0.1373   -0.0577    2.0407 O.3       1 ATP        -0.2728
     21 C1'         1.3733    1.5427    0.6747 C.3       1 ATP         0.2693
     22 N9          0.4520    2.5240    0.1767 N.pl3     1 ATP        -0.3222
     23 C8          0.1798    2.8712   -1.2933 C.ar      1 ATP         0.1640
     24 N7         -0.7494    3.8400   -1.3610 N.2       1 ATP        -0.1640
     25 C5         -1.0173    4.0603   -0.0358 C.ar      1 ATP         0.0820
     26 C6         -2.0105    5.0717    0.4241 C.ar      1 ATP         0.1640
     27 N6         -2.6723    5.7982   -0.4628 N.pl3     1 ATP        -0.4916
     28 N1         -2.1445    5.1522    1.7502 N.pl3     1 ATP        -0.4390
     29 C2         -1.3755    4.3143    2.6427 C.ar      1 ATP         0.5691
     30 N3         -0.5075    3.4292    2.2616 N.ar      1 ATP        -0.4283
     31 C4         -0.3667    3.3425    0.9070 C.ar      1 ATP         0.2226
     32 H5'1        2.8432    0.3119   -2.6398 H         1 ATP        -0.0393
     33 H5'2        1.2128   -0.0927   -2.0428 H         1 ATP        -0.0393
     34 H4'         3.8040   -0.1399   -0.4044 H         1 ATP        -0.0393
     35 H3'         1.6768   -1.7637    0.2732 H         1 ATP        -0.0393
     36 HO3'        2.2231   -1.2979    2.3952 H         1 ATP         0.2010
     37 H2'         0.0002   -0.0084   -0.0014 H         1 ATP        -0.0393
     38 HO2'       -0.6132    0.5577    2.1063 H         1 ATP         0.2010
     39 H1'         1.7718    1.9211    1.6015 H         1 ATP        -0.0393
     40 H8          0.6089    2.4651   -2.2147 H         1 ATP         0.0000
     41 HN61       -2.5055    5.6680   -1.4503 H         1 ATP         0.2048
     42 HN62       -3.3462    6.4841   -0.1542 H         1 ATP         0.2048
     43 H2         -1.5932    4.4937    3.7066 H         1 ATP        -0.1292
     44 H44        -2.8098    5.8270    2.1160 H         1 ATP         0.2048
@<TRIPOS>BOND
     1    1    2 2
     2    1    3 1
     3    1    4 1
     4    1    8 1
     5    5    6 2
     6    5    7 1
     7    5    8 1
     8    5   12 1
     9    9   10 2
    10    9   11 1
    11    9   12 1
    12    9   13 1
    13   13   14 1
    14   14   15 1
    15   14   32 1
    16   14   33 1
    17   15   16 1
    18   15   17 1
    19   15   34 1
    20   16   21 1
    21   17   18 1
    22   17   19 1
    23   17   35 1
    24   18   36 1
    25   19   20 1
    26   19   21 1
    27   19   37 1
    28   20   38 1
    29   21   22 1
    30   21   39 1
    31   22   23 ar
    32   22   31 ar
    33   23   24 ar
    34   23   40 1
    35   24   25 ar
    36   25   26 ar
    37   25   31 ar
    38   26   27 1
    39   26   28 ar
    40   27   41 1
    41   27   42 1
    42   28   29 ar
    43   28   44 1
    44   29   30 ar
    45   29   43 1
    46   30   31 ar
@<TRIPOS>SUBSTRUCTURE
     1 ATP         1 GROUP 0 A     ****
@<TRIPOS>MOLECULE
[[[5-(6-amino-1,8-dihydropurine-6,8-diylium-7-id-9-yl)-3,4-dihydroxy-tetrahydrofuran-2-yl]methoxy-oxido-phosphoryl]oxy-oxido-phosphoryl] phosphate
   44    46     1     0     0
SMALL
USER_CHARGES

@<TRIPOS>ATOM
      1 PG         -1.3779   -0.8051   -4.6930 P.3       1 ATP        -1.1921
      2 O1G        -2.3017    0.3677   -4.3818 O.co2     1 ATP         0.3195
      3 O2G        -2.0725   -1.9983   -5.3406 O.co2     1 ATP         0.3195
      4 O3G        -0.4296   -1.1738   -3.5568 O.co2     1 ATP         0.3195
      5 PB          0.6565    1.0346   -5.8464 P.3       1 ATP        -1.1062
      6 O1B         1.4628    1.0297   -7.1260 O.co2     1 ATP         0.3195
      7 O2B        -0.0952    2.2684   -5.3991 O.co2     1 ATP         0.3195
      8 O3B        -0.3766   -0.2307   -5.8708 O.3       1 ATP         0.4672
      9 PA          2.9240    1.2545   -3.9582 P.3       1 ATP        -1.1062
     10 O1A         2.4677    2.5117   -3.2503 O.co2     1 ATP         0.3195
     11 O2A         4.0284    1.3063   -4.9915 O.co2     1 ATP         0.3195
     12 O3A         1.6158    0.5359   -4.6230 O.3       1 ATP         0.4672
     13 O5'         3.2903    0.1346   -2.8241 O.3       1 ATP         0.1618
     14 C5'         2.2816   -0.2918   -1.9206 C.3       1 ATP         0.1504
     15 C4'         2.7248    0.0226   -0.4980 C.3       1 ATP         0.1111
     16 O4'         2.4697    1.4219   -0.2462 O.3       1 ATP        -0.1436
     17 C3'         1.9404   -0.7419    0.5596 C.3       1 ATP         0.1111
     18 O3'         2.7418   -0.8086    1.7389 O.3       1 ATP        -0.2728
     19 C2'         0.7477    0.1630    0.7858 C.3       1 ATP         0.1111
     20 O2'         0.1373   -0.0577    2.0407 O.3       1 ATP        -0.2728
     21 C1'         1.3733    1.5427    0.6747 C.3       1 ATP         0.2693
     22 N9          0.4520    2.5240    0.1767 N.pl3     1 ATP        -0.3222
     23 C8         -0.3054    2.4845   -1.1576 C.ar      1 ATP         0.1640
     24 N7         -1.0755    3.5806   -1.2691 N.2       1 ATP        -0.1640
     25 C5         -0.8043    4.2306   -0.0942 C.ar      1 ATP         0.0820
     26 C6         -1.4324    5.5335    0.2646 C.ar      1 ATP         0.1640
     27 N6         -2.2885    6.1054   -0.5675 N.pl3     1 ATP        -0.4916
     28 N1         -1.0537    6.0229    1.4478 N.pl3     1 ATP        -0.4390
     29 C2         -0.1096    5.3242    2.2908 C.ar      1 ATP         0.5691
     30 N3          0.4468    4.1904    1.9960 N.ar      1 ATP        -0.4283
     31 C4          0.0631    3.6855    0.7877 C.ar      1 ATP         0.2226
     32 H5'1        1.3514    0.2330   -2.1577 H         1 ATP        -0.0393
     33 H5'2        2.1280   -1.3678   -2.0460 H         1 ATP        -0.0393
     34 H4'         3.8040   -0.1399   -0.4044 H         1 ATP        -0.0393
     35 H3'         1.6768   -1.7637    0.2732 H         1 ATP        -0.0393
     36 HO3'        2.2231   -1.2979    2.3952 H         1 ATP         0.2010
     37 H2'         0.0002   -0.0084   -0.0014 H         1 ATP        -0.0393
     38 HO2'       -0.6132    0.5577    2.1063 H         1 ATP         0.2010
     39 H1'         1.7718    1.9211    1.6015 H         1 ATP        -0.0393
     40 H8         -0.2991    1.7413   -1.9611 H         1 ATP         0.0000
     41 HN61       -2.5167    5.6603   -1.4447 H         1 ATP         0.2048
     42 HN62       -2.7159    6.9882   -0.3270 H         1 ATP         0.2048
     43 H2          0.1059    5.8491    3.2340 H         1 ATP        -0.1292
     44 H44        -1.4532    6.9099    1.7401 H         1 ATP         0.2048
@<TRIPOS>BOND
     1    1    2 2
     2    1    3 1
     3    1    4 1
     4    1    8 1
     5    5    6 2
     6    5    7 1
     7    5    8 1
     8    5   12 1
     9    9   10 2
    10    9   11 1
    11    9   12 1
    12    9   13 1
    13   13   14 1
    14   14   15 1
    15   14   32 1
    16   14   33 1
    17   15   16 1
    18   15   17 1
    19   15   34 1
    20   16   21 1
    21   17   18 1
    22   17   19 1
    23   17   35 1
    24   18   36 1
    25   19   20 1
    26   19   21 1
    27   19   37 1
    28   20   38 1
    29   21   22 1
    30   21   39 1
    31   22   23 ar
    32   22   31 ar
    33   23   24 ar
    34   23   40 1
    35   24   25 ar
    36   25   26 ar
    37   25   31 ar
    38   26   27 1
    39   26   28 ar
    40   27   41 1
    41   27   42 1
    42   28   29 ar
    43   28   44 1
    44   29   30 ar
    45   29   43 1
    46   30   31 ar
@<TRIPOS>SUBSTRUCTURE
     1 ATP         1 GROUP 0 A     ****
@<TRIPOS>MOLECULE
[[[5-(6-amino-1,8-dihydropurine-6,8-diylium-7-id-9-yl)-3,4-dihydroxy-tetrahydrofuran-2-yl]methoxy-oxido-phosphoryl]oxy-oxido-phosphoryl] phosphate
   44    46     1     0     0
SMALL
USER_CHARGES

@<TRIPOS>ATOM
      1 PG          0.9969    5.1643   -5.3179 P.3       1 ATP        -1.1921
      2 O1G         2.0711    5.7020   -6.2576 O.co2     1 ATP         0.3195
      3 O2G        -0.4112    5.1697   -5.9035 O.co2     1 ATP         0.3195
      4 O3G         1.0846    5.7024   -3.8936 O.co2     1 ATP         0.3195
      5 PB          2.7175    2.8482   -4.5904 P.3       1 ATP        -1.1062
      6 O1B         3.8550    3.1326   -5.5458 O.co2     1 ATP         0.3195
      7 O2B         2.8430    3.1450   -3.1127 O.co2     1 ATP         0.3195
      8 O3B         1.3629    3.5643   -5.1574 O.3       1 ATP         0.4672
      9 PA          3.0683   -0.0853   -4.4294 P.3       1 ATP        -1.1062
     10 O1A         4.4204   -0.0240   -5.1060 O.co2     1 ATP         0.3195
     11 O2A         2.1435   -1.2619   -4.6544 O.co2     1 ATP         0.3195
     12 O3A         2.2592    1.2920   -4.7730 O.3       1 ATP         0.4672
     13 O5'         3.2903    0.1346   -2.8241 O.3       1 ATP         0.1618
     14 C5'         2.2816   -0.2918   -1.9206 C.3       1 ATP         0.1504
     15 C4'         2.7248    0.0226   -0.4980 C.3       1 ATP         0.1111
     16 O4'         2.4697    1.4219   -0.2462 O.3       1 ATP        -0.1436
     17 C3'         1.9404   -0.7419    0.5596 C.3       1 ATP         0.1111
     18 O3'         2.7418   -0.8086    1.7389 O.3       1 ATP        -0.2728
     19 C2'         0.7477    0.1630    0.7858 C.3       1 ATP         0.1111
     20 O2'         0.1373   -0.0577    2.0407 O.3       1 ATP        -0.2728
     21 C1'         1.3733    1.5427    0.6747 C.3       1 ATP         0.2693
     22 N9          0.4520    2.5240    0.1767 N.pl3     1 ATP        -0.3222
     23 C8         -1.0247    2.3053   -0.1800 C.ar      1 ATP         0.1640
     24 N7         -1.5580    3.4612   -0.6116 N.2       1 ATP        -0.1640
     25 C5         -0.4873    4.3110   -0.5222 C.ar      1 ATP         0.0820
     26 C6         -0.5728    5.7505   -0.8981 C.ar      1 ATP         0.1640
     27 N6         -1.7163    6.2514   -1.3385 N.pl3     1 ATP        -0.4916
     28 N1          0.5667    6.4301   -0.7475 N.pl3     1 ATP        -0.4390
     29 C2          1.7697    5.7952   -0.2579 C.ar      1 ATP         0.5691
     30 N3          1.8633    4.5450    0.0742 N.ar      1 ATP        -0.4283
     31 C4          0.7014    3.8457   -0.0776 C.ar      1 ATP         0.2226
     32 H5'1        1.3514    0.2330   -2.1577 H         1 ATP        -0.0393
     33 H5'2        2.1280   -1.3678   -2.0460 H         1 ATP        -0.0393
     34 H4'         3.8040   -0.1399   -0.4044 H         1 ATP        -0.0393
     35 H3'         1.6768   -1.7637    0.2732 H         1 ATP        -0.0393
     36 HO3'        2.2231   -1.2979    2.3952 H         1 ATP         0.2010
     37 H2'         0.0002   -0.0084   -0.0014 H         1 ATP        -0.0393
     38 HO2'       -0.1554   -0.9852    2.0577 H         1 ATP         0.2010
     39 H1'         1.7718    1.9211    1.6015 H         1 ATP        -0.0393
     40 H8         -1.6458    1.4054   -0.1318 H         1 ATP         0.0000
     41 HN61       -2.5307    5.6598   -1.4199 H         1 ATP         0.2048
     42 HN62       -1.7773    7.2266   -1.5938 H         1 ATP         0.2048
     43 H2          2.6279    6.4808   -0.1872 H         1 ATP        -0.1292
     44 H44         0.5621    7.4166   -0.9900 H         1 ATP         0.2048
@<TRIPOS>BOND
     1    1    2 2
     2    1    3 1
     3    1    4 1
     4    1    8 1
     5    5    6 2
     6    5    7 1
     7    5    8 1
     8    5   12 1
     9    9   10 2
    10    9   11 1
    11    9   12 1
    12    9   13 1
    13   13   14 1
    14   14   15 1
    15   14   32 1
    16   14   33 1
    17   15   16 1
    18   15   17 1
    19   15   34 1
    20   16   21 1
    21   17   18 1
    22   17   19 1
    23   17   35 1
    24   18   36 1
    25   19   20 1
    26   19   21 1
    27   19   37 1
    28   20   38 1
    29   21   22 1
    30   21   39 1
    31   22   23 ar
    32   22   31 ar
    33   23   24 ar
    34   23   40 1
    35   24   25 ar
    36   25   26 ar
    37   25   31 ar
    38   26   27 1
    39   26   28 ar
    40   27   41 1
    41   27   42 1
    42   28   29 ar
    43   28   44 1
    44   29   30 ar
    45   29   43 1
    46   30   31 ar
@<TRIPOS>SUBSTRUCTURE
     1 ATP         1 GROUP 0 A     ****
@<TRIPOS>MOLECULE
[[[5-(6-amino-1,8-dihydropurine-6,8-diylium-7-id-9-yl)-3,4-dihydroxy-tetrahydrofuran-2-yl]methoxy-oxido-phosphoryl]oxy-oxido-phosphoryl] phosphate
   44    46     1     0     0
SMALL
USER_CHARGES

@<TRIPOS>ATOM
      1 PG          1.4555   -0.0183   -8.7732 P.3       1 ATP        -1.1921
      2 O1G        -0.0503   -0.1756   -8.9571 O.co2     1 ATP         0.3195
      3 O2G         1.9957    1.3557   -9.1551 O.co2     1 ATP         0.3195
      4 O3G         2.2772   -1.1855   -9.3104 O.co2     1 ATP         0.3195
      5 PB          1.3155   -1.3003   -6.0917 P.3       1 ATP        -1.1062
      6 O1B        -0.1881   -1.4451   -6.0143 O.co2     1 ATP         0.3195
      7 O2B         2.2025   -2.4888   -6.3884 O.co2     1 ATP         0.3195
      8 O3B         1.6751   -0.1007   -7.1408 O.3       1 ATP         0.4672
      9 PA          3.3347   -0.0507   -4.3265 P.3       1 ATP        -1.1062
     10 O1A         3.6687    1.1277   -5.2151 O.co2     1 ATP         0.3195
     11 O2A         4.2681   -1.2382   -4.2337 O.co2     1 ATP         0.3195
     12 O3A         1.8422   -0.5852   -4.7217 O.3       1 ATP         0.4672
     13 O5'         3.0213    0.5153   -2.8245 O.3       1 ATP         0.1618
     14 C5'         2.2816   -0.2918   -1.9206 C.3       1 ATP         0.1504
     15 C4'         2.7248    0.0226   -0.4980 C.3       1 ATP         0.1111
     16 O4'         2.4697    1.4219   -0.2462 O.3       1 ATP        -0.1436
     17 C3'         1.9404   -0.7419    0.5596 C.3       1 ATP         0.1111
     18 O3'         2.7418   -0.8086    1.7389 O.3       1 ATP        -0.2728
     19 C2'         0.7477    0.1630    0.7858 C.3       1 ATP         0.1111
     20 O2'         0.1373   -0.0577    2.0407 O.3       1 ATP        -0.2728
     21 C1'         1.3733    1.5427    0.6747 C.3       1 ATP         0.2693
     22 N9          0.4520    2.5240    0.1767 N.pl3     1 ATP        -0.3222
     23 C8          0.1798    2.8712   -1.2933 C.ar      1 ATP         0.1640
     24 N7         -0.7494    3.8400   -1.3610 N.2       1 ATP        -0.1640
     25 C5         -1.0173    4.0603   -0.0358 C.ar      1 ATP         0.0820
     26 C6         -2.0105    5.0717    0.4241 C.ar      1 ATP         0.1640
     27 N6         -2.6723    5.7982   -0.4628 N.pl3     1 ATP        -0.4916
     28 N1         -2.1445    5.1522    1.7502 N.pl3     1 ATP        -0.4390
     29 C2         -1.3755    4.3143    2.6427 C.ar      1 ATP         0.5691
     30 N3         -0.5075    3.4292    2.2616 N.ar      1 ATP        -0.4283
     31 C4         -0.3667    3.3425    0.9070 C.ar      1 ATP         0.2226
     32 H5'1        1.2163   -0.0770   -2.0471 H         1 ATP        -0.0393
     33 H5'2        2.4655   -1.3443   -2.1563 H         1 ATP        -0.0393
     34 H4'         3.8040   -0.1399   -0.4044 H         1 ATP        -0.0393
     35 H3'         1.6768   -1.7637    0.2732 H         1 ATP        -0.0393
     36 HO3'        2.2231   -1.2979    2.3952 H         1 ATP         0.2010
     37 H2'         0.0002   -0.0084   -0.0014 H         1 ATP        -0.0393
     38 HO2'       -0.1554   -0.9852    2.0577 H         1 ATP         0.2010
     39 H1'         1.7718    1.9211    1.6015 H         1 ATP        -0.0393
     40 H8          0.6089    2.4651   -2.2147 H         1 ATP         0.0000
     41 HN61       -2.5055    5.6680   -1.4503 H         1 ATP         0.2048
     42 HN62       -3.3462    6.4841   -0.1542 H         1 ATP         0.2048
     43 H2         -1.5932    4.4937    3.7066 H         1 ATP        -0.1292
     44 H44        -2.8098    5.8270    2.1160 H         1 ATP         0.2048
@<TRIPOS>BOND
     1    1    2 2
     2    1    3 1
     3    1    4 1
     4    1    8 1
     5    5    6 2
     6    5    7 1
     7    5    8 1
     8    5   12 1
     9    9   10 2
    10    9   11 1
    11    9   12 1
    12    9   13 1
    13   13   14 1
    14   14   15 1
    15   14   32 1
    16   14   33 1
    17   15   16 1
    18   15   17 1
    19   15   34 1
    20   16   21 1
    21   17   18 1
    22   17   19 1
    23   17   35 1
    24   18   36 1
    25   19   20 1
    26   19   21 1
    27   19   37 1
    28   20   38 1
    29   21   22 1
    30   21   39 1
    31   22   23 ar
    32   22   31 ar
    33   23   24 ar
    34   23   40 1
    35   24   25 ar
    36   25   26 ar
    37   25   31 ar
    38   26   27 1
    39   26   28 ar
    40   27   41 1
    41   27   42 1
    42   28   29 ar
    43   28   44 1
    44   29   30 ar
    45   29   43 1
    46   30   31 ar
@<TRIPOS>SUBSTRUCTURE
     1 ATP         1 GROUP 0 A     ****
@<TRIPOS>MOLECULE
[[[5-(6-amino-1,8-dihydropurine-6,8-diylium-7-id-9-yl)-3,4-dihydroxy-tetrahydrofuran-2-yl]methoxy-oxido-phosphoryl]oxy-oxido-phosphoryl] phosphate
   44    46     1     0     0
SMALL
USER_CHARGES

@<TRIPOS>ATOM
      1 PG          0.4318    5.5934   -5.4080 P.3       1 ATP        -1.1921
      2 O1G        -0.7850    6.0663   -4.6196 O.co2     1 ATP         0.3195
      3 O2G         1.6590    6.4876   -5.2671 O.co2     1 ATP         0.3195
      4 O3G         0.1244    5.1735   -6.8416 O.co2     1 ATP         0.3195
      5 PB          0.0259    2.8016   -4.4619 P.3       1 ATP        -1.1062
      6 O1B        -1.1270    3.0719   -3.5210 O.co2     1 ATP         0.3195
      7 O2B        -0.1995    2.1603   -5.8129 O.co2     1 ATP         0.3195
      8 O3B         0.8699    4.1848   -4.6706 O.3       1 ATP         0.4672
      9 PA          2.3343    0.9640   -4.2391 P.3       1 ATP        -1.1062
     10 O1A         3.3314    1.8094   -5.0012 O.co2     1 ATP         0.3195
     11 O2A         1.6842   -0.2385   -4.8882 O.co2     1 ATP         0.3195
     12 O3A         1.1634    1.9464   -3.6617 O.3       1 ATP         0.4672
     13 O5'         3.0213    0.5153   -2.8245 O.3       1 ATP         0.1618
     14 C5'         2.2816   -0.2918   -1.9206 C.3       1 ATP         0.1504
     15 C4'         2.7248    0.0226   -0.4980 C.3       1 ATP         0.1111
     16 O4'         2.4697    1.4219   -0.2462 O.3       1 ATP        -0.1436
     17 C3'         1.9404   -0.7419    0.5596 C.3       1 ATP         0.1111
     18 O3'         2.7418   -0.8086    1.7389 O.3       1 ATP        -0.2728
     19 C2'         0.7477    0.1630    0.7858 C.3       1 ATP         0.1111
     20 O2'         0.1373   -0.0577    2.0407 O.3       1 ATP        -0.2728
     21 C1'         1.3733    1.5427    0.6747 C.3       1 ATP         0.2693
     22 N9          0.4520    2.5240    0.1767 N.pl3     1 ATP        -0.3222
     23 C8         -1.0660    2.5608    0.3999 C.ar      1 ATP         0.1640
     24 N7         -1.5852    3.6333   -0.2221 N.2       1 ATP        -0.1640
     25 C5         -0.4682    4.1996   -0.7771 C.ar      1 ATP         0.0820
     26 C6         -0.5216    5.4476   -1.5899 C.ar      1 ATP         0.1640
     27 N6         -1.6813    6.0510   -1.7982 N.pl3     1 ATP        -0.4916
     28 N1          0.6621    5.8575   -2.0523 N.pl3     1 ATP        -0.4390
     29 C2          1.8795    5.1301   -1.7717 C.ar      1 ATP         0.5691
     30 N3          1.9458    4.0434   -1.0670 N.ar      1 ATP        -0.4283
     31 C4          0.7388    3.6199   -0.5917 C.ar      1 ATP         0.2226
     32 H5'1        1.2163   -0.0770   -2.0471 H         1 ATP        -0.0393
     33 H5'2        2.4655   -1.3443   -2.1563 H         1 ATP        -0.0393
     34 H4'         3.8040   -0.1399   -0.4044 H         1 ATP        -0.0393
     35 H3'         1.6768   -1.7637    0.2732 H         1 ATP        -0.0393
     36 HO3'        2.2231   -1.2979    2.3952 H         1 ATP         0.2010
     37 H2'         0.0002   -0.0084   -0.0014 H         1 ATP        -0.0393
     38 HO2'       -0.1554   -0.9852    2.0577 H         1 ATP         0.2010
     39 H1'         1.7718    1.9211    1.6015 H         1 ATP        -0.0393
     40 H8         -1.7235    1.8833    0.9537 H         1 ATP         0.0000
     41 HN61       -2.5296    5.6672   -1.4072 H         1 ATP         0.2048
     42 HN62       -1.7205    6.8969   -2.3483 H         1 ATP         0.2048
     43 H2          2.7750    5.5878   -2.2190 H         1 ATP        -0.1292
     44 H44         0.6808    6.7046   -2.6128 H         1 ATP         0.2048
@<TRIPOS>BOND
     1    1    2 2
     2    1    3 1
     3    1    4 1
     4    1    8 1
     5    5    6 2
     6    5    7 1
     7    5    8 1
     8    5   12 1
     9    9   10 2
    10    9   11 1
    11    9   12 1
    12    9   13 1
    13   13   14 1
    14   14   15 1
    15   14   32 1
    16   14   33 1
    17   15   16 1
    18   15   17 1
    19   15   34 1
    20   16   21 1
    21   17   18 1
    22   17   19 1
    23   17   35 1
    24   18   36 1
    25   19   20 1
    26   19   21 1
    27   19   37 1
    28   20   38 1
    29   21   22 1
    30   21   39 1
    31   22   23 ar
    32   22   31 ar
    33   23   24 ar
    34   23   40 1
    35   24   25 ar
    36   25   26 ar
    37   25   31 ar
    38   26   27 1
    39   26   28 ar
    40   27   41 1
    41   27   42 1
    42   28   29 ar
    43   28   44 1
    44   29   30 ar
    45   29   43 1
    46   30   31 ar
@<TRIPOS>SUBSTRUCTURE
     1 ATP         1 GROUP 0 A     ****
@<TRIPOS>MOLECULE
[[[5-(6-amino-1,8-dihydropurine-6,8-diylium-7-id-9-yl)-3,4-dihydroxy-tetrahydrofuran-2-yl]methoxy-oxido-phosphoryl]oxy-oxido-phosphoryl] phosphate
   44    46     1     0     0
SMALL
USER_CHARGES

@<TRIPOS>ATOM
      1 PG         -7.0047   -3.7629    0.1871 P.3       1 ATP        -1.1921
      2 O1G        -7.7268   -3.3921    1.4782 O.co2     1 ATP         0.3195
      3 O2G        -6.7308   -2.5844   -0.7412 O.co2     1 ATP         0.3195
      4 O3G        -7.5684   -4.9943   -0.5142 O.co2     1 ATP         0.3195
      5 PB         -5.0735   -5.4551    1.6908 P.3       1 ATP        -1.1062
      6 O1B        -5.5591   -5.1270    3.0851 O.co2     1 ATP         0.3195
      7 O2B        -5.4084   -6.7763    1.0354 O.co2     1 ATP         0.3195
      8 O3B        -5.5075   -4.2438    0.6840 O.3       1 ATP         0.4672
      9 PA         -2.2649   -6.0688    2.3909 P.3       1 ATP        -1.1062
     10 O1A        -2.2218   -7.4684    1.8173 O.co2     1 ATP         0.3195
     11 O2A        -2.3876   -5.8479    3.8829 O.co2     1 ATP         0.3195
     12 O3A        -3.4558   -5.2416    1.6377 O.3       1 ATP         0.4672
     13 O5'        -0.9724   -5.2440    1.8220 O.3       1 ATP         0.1618
     14 C5'        -0.7840   -3.8935    2.2172 C.3       1 ATP         0.1504
     15 C4'        -0.0724   -3.1466    1.1027 C.3       1 ATP         0.1111
     16 O4'        -0.8674   -3.1929   -0.0945 O.3       1 ATP        -0.1436
     17 C3'         0.1338   -1.6715    1.4027 C.3       1 ATP         0.1111
     18 O3'         1.2893   -1.4445    2.1808 O.3       1 ATP        -0.2728
     19 C2'         0.2158   -1.0724    0.0128 C.3       1 ATP         0.1111
     20 O2'         1.5141   -1.2448   -0.5513 O.3       1 ATP        -0.2728
     21 C1'        -0.7897   -1.9176   -0.7583 C.3       1 ATP         0.2693
     22 N9         -2.1040   -1.3333   -0.7704 N.pl3     1 ATP        -0.3222
     23 C8         -3.2124   -1.5345    0.2719 C.ar      1 ATP         0.1640
     24 N7         -4.2964   -0.8234   -0.0828 N.2       1 ATP        -0.1640
     25 C5         -3.8754   -0.2386   -1.2478 C.ar      1 ATP         0.0820
     26 C6         -4.7432    0.6719   -2.0470 C.ar      1 ATP         0.1640
     27 N6         -5.9725    0.9415   -1.6366 N.pl3     1 ATP        -0.4916
     28 N1         -4.1703    1.1517   -3.1536 N.pl3     1 ATP        -0.4390
     29 C2         -2.8174    0.7994   -3.5215 C.ar      1 ATP         0.5691
     30 N3         -2.0475    0.0097   -2.8393 N.ar      1 ATP        -0.4283
     31 C4         -2.6278   -0.4836   -1.7071 C.ar      1 ATP         0.2226
     32 H5'1       -1.7618   -3.4448    2.4164 H         1 ATP        -0.0393
     33 H5'2       -0.1874   -3.8744    3.1341 H         1 ATP        -0.0393
     34 H4'         0.8871   -3.6466    0.8809 H         1 ATP        -0.0393
     35 H3'        -0.7370   -1.2334    1.9869 H         1 ATP        -0.0393
     36 HO3'        1.3407   -0.4871    2.3218 H         1 ATP         0.2010
     37 H2'        -0.0343   -0.0280    0.0196 H         1 ATP        -0.0393
     38 HO2'        2.1443   -0.7955    0.0378 H         1 ATP         0.2010
     39 H1'        -0.5175   -2.1046   -1.7826 H         1 ATP        -0.0393
     40 H8         -3.2310   -2.1319    1.1889 H         1 ATP         0.0000
     41 HN61       -6.3231    0.5316   -0.7829 H         1 ATP         0.2048
     42 HN62       -6.5628    1.5584   -2.1760 H         1 ATP         0.2048
     43 H2         -2.4822    1.2710   -4.4579 H         1 ATP        -0.1292
     44 H44        -4.7200    1.7780   -3.7346 H         1 ATP         0.2048
@<TRIPOS>BOND
     1    1    2 2
     2    1    3 1
     3    1    4 1
     4    1    8 1
     5    5    6 2
     6    5    7 1
     7    5    8 1
     8    5   12 1
     9    9   10 2
    10    9   11 1
    11    9   12 1
    12    9   13 1
    13   13   14 1
    14   14   15 1
    15   14   32 1
    16   14   33 1
    17   15   16 1
    18   15   17 1
    19   15   34 1
    20   16   21 1
    21   17   18 1
    22   17   19 1
    23   17   35 1
    24   18   36 1
    25   19   20 1
    26   19   21 1
    27   19   37 1
    28   20   38 1
    29   21   22 1
    30   21   39 1
    31   22   23 ar
    32   22   31 ar
    33   23   24 ar
    34   23   40 1
    35   24   25 ar
    36   25   26 ar
    37   25   31 ar
    38   26   27 1
    39   26   28 ar
    40   27   41 1
    41   27   42 1
    42   28   29 ar
    43   28   44 1
    44   29   30 ar
    45   29   43 1
    46   30   31 ar
@<TRIPOS>SUBSTRUCTURE
     1 ATP         1 GROUP 0 A     ****
@<TRIPOS>MOLECULE
[[[5-(6-amino-1,8-dihydropurine-6,8-diylium-7-id-9-yl)-3,4-dihydroxy-tetrahydrofuran-2-yl]methoxy-oxido-phosphoryl]oxy-oxido-phosphoryl] phosphate
   44    46     1     0     0
SMALL
USER_CHARGES

@<TRIPOS>ATOM
      1 PG         -0.2274    1.7323   -6.1768 P.3       1 ATP        -1.1921
      2 O1G         0.4602    2.3860   -7.3708 O.co2     1 ATP         0.3195
      3 O2G        -1.7492    1.8302   -6.1961 O.co2     1 ATP         0.3195
      4 O3G         0.4044    2.0673   -4.8298 O.co2     1 ATP         0.3195
      5 PB          1.5010   -0.6763   -6.4327 P.3       1 ATP        -1.1062
      6 O1B         1.2249   -2.1633   -6.4437 O.co2     1 ATP         0.3195
      7 O2B         2.3704   -0.0332   -7.4900 O.co2     1 ATP         0.3195
      8 O3B         0.0774    0.1225   -6.3652 O.3       1 ATP         0.4672
      9 PA          3.4850   -0.6647   -4.2376 P.3       1 ATP        -1.1062
     10 O1A         4.6156   -0.0083   -4.9995 O.co2     1 ATP         0.3195
     11 O2A         3.4906   -2.1555   -3.9776 O.co2     1 ATP         0.3195
     12 O3A         2.0765   -0.2630   -4.9618 O.3       1 ATP         0.4672
     13 O5'         3.2903    0.1346   -2.8241 O.3       1 ATP         0.1618
     14 C5'         2.2816   -0.2918   -1.9206 C.3       1 ATP         0.1504
     15 C4'         2.7248    0.0226   -0.4980 C.3       1 ATP         0.1111
     16 O4'         2.4697    1.4219   -0.2462 O.3       1 ATP        -0.1436
     17 C3'         1.9404   -0.7419    0.5596 C.3       1 ATP         0.1111
     18 O3'         2.7418   -0.8086    1.7389 O.3       1 ATP        -0.2728
     19 C2'         0.7477    0.1630    0.7858 C.3       1 ATP         0.1111
     20 O2'         0.1373   -0.0577    2.0407 O.3       1 ATP        -0.2728
     21 C1'         1.3733    1.5427    0.6747 C.3       1 ATP         0.2693
     22 N9          0.4520    2.5240    0.1767 N.pl3     1 ATP        -0.3222
     23 C8          0.1798    2.8712   -1.2933 C.ar      1 ATP         0.1640
     24 N7         -0.7494    3.8400   -1.3610 N.2       1 ATP        -0.1640
     25 C5         -1.0173    4.0603   -0.0358 C.ar      1 ATP         0.0820
     26 C6         -2.0105    5.0717    0.4241 C.ar      1 ATP         0.1640
     27 N6         -2.6723    5.7982   -0.4628 N.pl3     1 ATP        -0.4916
     28 N1         -2.1445    5.1522    1.7502 N.pl3     1 ATP        -0.4390
     29 C2         -1.3755    4.3143    2.6427 C.ar      1 ATP         0.5691
     30 N3         -0.5075    3.4292    2.2616 N.ar      1 ATP        -0.4283
     31 C4         -0.3667    3.3425    0.9070 C.ar      1 ATP         0.2226
     32 H5'1        1.3514    0.2330   -2.1577 H         1 ATP        -0.0393
     33 H5'2        2.1280   -1.3678   -2.0460 H         1 ATP        -0.0393
     34 H4'         3.8040   -0.1399   -0.4044 H         1 ATP        -0.0393
     35 H3'         1.6768   -1.7637    0.2732 H         1 ATP        -0.0393
     36 HO3'        3.5553   -1.2733    1.4913 H         1 ATP         0.2010
     37 H2'         0.0002   -0.0084   -0.0014 H         1 ATP        -0.0393
     38 HO2'       -0.6132    0.5577    2.1063 H         1 ATP         0.2010
     39 H1'         1.7718    1.9211    1.6015 H         1 ATP        -0.0393
     40 H8          0.6089    2.4651   -2.2147 H         1 ATP         0.0000
     41 HN61       -2.5055    5.6680   -1.4503 H         1 ATP         0.2048
     42 HN62       -3.3462    6.4841   -0.1542 H         1 ATP         0.2048
     43 H2         -1.5932    4.4937    3.7066 H         1 ATP        -0.1292
     44 H44        -2.8098    5.8270    2.1160 H         1 ATP         0.2048
@<TRIPOS>BOND
     1    1    2 2
     2    1    3 1
     3    1    4 1
     4    1    8 1
     5    5    6 2
     6    5    7 1
     7    5    8 1
     8    5   12 1
     9    9   10 2
    10    9   11 1
    11    9   12 1
    12    9   13 1
    13   13   14 1
    14   14   15 1
    15   14   32 1
    16   14   33 1
    17   15   16 1
    18   15   17 1
    19   15   34 1
    20   16   21 1
    21   17   18 1
    22   17   19 1
    23   17   35 1
    24   18   36 1
    25   19   20 1
    26   19   21 1
    27   19   37 1
    28   20   38 1
    29   21   22 1
    30   21   39 1
    31   22   23 ar
    32   22   31 ar
    33   23   24 ar
    34   23   40 1
    35   24   25 ar
    36   25   26 ar
    37   25   31 ar
    38   26   27 1
    39   26   28 ar
    40   27   41 1
    41   27   42 1
    42   28   29 ar
    43   28   44 1
    44   29   30 ar
    45   29   43 1
    46   30   31 ar
@<TRIPOS>SUBSTRUCTURE
     1 ATP         1 GROUP 0 A     ****
@<TRIPOS>MOLECULE
[[[5-(6-amino-1,8-dihydropurine-6,8-diylium-7-id-9-yl)-3,4-dihydroxy-tetrahydrofuran-2-yl]methoxy-oxido-phosphoryl]oxy-oxido-phosphoryl] phosphate
   44    46     1     0     0
SMALL
USER_CHARGES

@<TRIPOS>ATOM
      1 PG         -0.4796    2.0833   -7.0991 P.3       1 ATP        -1.1921
      2 O1G         0.7030    2.0119   -8.0594 O.co2     1 ATP         0.3195
      3 O2G        -1.3894    0.8597   -7.1296 O.co2     1 ATP         0.3195
      4 O3G        -1.2215    3.4156   -7.1174 O.co2     1 ATP         0.3195
      5 PB          1.2878    3.0530   -4.9106 P.3       1 ATP        -1.1062
      6 O1B         2.2638    3.5207   -5.9671 O.co2     1 ATP         0.3195
      7 O2B         0.5389    4.0407   -4.0440 O.co2     1 ATP         0.3195
      8 O3B         0.2108    2.0377   -5.6021 O.3       1 ATP         0.4672
      9 PA          2.8629    0.6171   -4.3271 P.3       1 ATP        -1.1062
     10 O1A         4.1195    1.0141   -5.0709 O.co2     1 ATP         0.3195
     11 O2A         1.8953   -0.3828   -4.9221 O.co2     1 ATP         0.3195
     12 O3A         2.0427    1.9769   -3.9423 O.3       1 ATP         0.4672
     13 O5'         3.2903    0.1346   -2.8241 O.3       1 ATP         0.1618
     14 C5'         2.2816   -0.2918   -1.9206 C.3       1 ATP         0.1504
     15 C4'         2.7248    0.0226   -0.4980 C.3       1 ATP         0.1111
     16 O4'         2.4697    1.4219   -0.2462 O.3       1 ATP        -0.1436
     17 C3'         1.9404   -0.7419    0.5596 C.3       1 ATP         0.1111
     18 O3'         2.7418   -0.8086    1.7389 O.3       1 ATP        -0.2728
     19 C2'         0.7477    0.1630    0.7858 C.3       1 ATP         0.1111
     20 O2'         0.1373   -0.0577    2.0407 O.3       1 ATP        -0.2728
     21 C1'         1.3733    1.5427    0.6747 C.3       1 ATP         0.2693
     22 N9          0.4520    2.5240    0.1767 N.pl3     1 ATP        -0.3222
     23 C8         -0.3054    2.4845   -1.1576 C.ar      1 ATP         0.1640
     24 N7         -1.0755    3.5806   -1.2691 N.2       1 ATP        -0.1640
     25 C5         -0.8043    4.2306   -0.0942 C.ar      1 ATP         0.0820
     26 C6         -1.4324    5.5335    0.2646 C.ar      1 ATP         0.1640
     27 N6         -2.2885    6.1054   -0.5675 N.pl3     1 ATP        -0.4916
     28 N1         -1.0537    6.0229    1.4478 N.pl3     1 ATP        -0.4390
     29 C2         -0.1096    5.3242    2.2908 C.ar      1 ATP         0.5691
     30 N3          0.4468    4.1904    1.9960 N.ar      1 ATP        -0.4283
     31 C4          0.0631    3.6855    0.7877 C.ar      1 ATP         0.2226
     32 H5'1        1.3514    0.2330   -2.1577 H         1 ATP        -0.0393
     33 H5'2        2.1280   -1.3678   -2.0460 H         1 ATP        -0.0393
     34 H4'         3.8040   -0.1399   -0.4044 H         1 ATP        -0.0393
     35 H3'         1.6768   -1.7637    0.2732 H         1 ATP        -0.0393
     36 HO3'        2.2231   -1.2979    2.3952 H         1 ATP         0.2010
     37 H2'         0.0002   -0.0084   -0.0014 H         1 ATP        -0.0393
     38 HO2'       -0.6132    0.5577    2.1063 H         1 ATP         0.2010
     39 H1'         1.7718    1.9211    1.6015 H         1 ATP        -0.0393
     40 H8         -0.2991    1.7413   -1.9611 H         1 ATP         0.0000
     41 HN61       -2.5167    5.6603   -1.4447 H         1 ATP         0.2048
     42 HN62       -2.7159    6.9882   -0.3270 H         1 ATP         0.2048
     43 H2          0.1059    5.8491    3.2340 H         1 ATP        -0.1292
     44 H44        -1.4532    6.9099    1.7401 H         1 ATP         0.2048
@<TRIPOS>BOND
     1    1    2 2
     2    1    3 1
     3    1    4 1
     4    1    8 1
     5    5    6 2
     6    5    7 1
     7    5    8 1
     8    5   12 1
     9    9   10 2
    10    9   11 1
    11    9   12 1
    12    9   13 1
    13   13   14 1
    14   14   15 1
    15   14   32 1
    16   14   33 1
    17   15   16 1
    18   15   17 1
    19   15   34 1
    20   16   21 1
    21   17   18 1
    22   17   19 1
    23   17   35 1
    24   18   36 1
    25   19   20 1
    26   19   21 1
    27   19   37 1
    28   20   38 1
    29   21   22 1
    30   21   39 1
    31   22   23 ar
    32   22   31 ar
    33   23   24 ar
    34   23   40 1
    35   24   25 ar
    36   25   26 ar
    37   25   31 ar
    38   26   27 1
    39   26   28 ar
    40   27   41 1
    41   27   42 1
    42   28   29 ar
    43   28   44 1
    44   29   30 ar
    45   29   43 1
    46   30   31 ar
@<TRIPOS>SUBSTRUCTURE
     1 ATP         1 GROUP 0 A     ****
@<TRIPOS>MOLECULE
[[[5-(6-amino-1,8-dihydropurine-6,8-diylium-7-id-9-yl)-3,4-dihydroxy-tetrahydrofuran-2-yl]methoxy-oxido-phosphoryl]oxy-oxido-phosphoryl] phosphate
   44    46     1     0     0
SMALL
USER_CHARGES

@<TRIPOS>ATOM
      1 PG         -0.9616   -0.1433   -5.9674 P.3       1 ATP        -1.1921
      2 O1G        -0.7584    0.3249   -7.4046 O.co2     1 ATP         0.3195
      3 O2G        -2.4004   -0.5141   -5.6242 O.co2     1 ATP         0.3195
      4 O3G        -0.2732    0.7279   -4.9219 O.co2     1 ATP         0.3195
      5 PB          1.4367   -1.8957   -6.1431 P.3       1 ATP        -1.1062
      6 O1B         1.5836   -3.3565   -6.5065 O.co2     1 ATP         0.3195
      7 O2B         2.0201   -0.8086   -7.0178 O.co2     1 ATP         0.3195
      8 O3B        -0.1445   -1.5736   -5.8879 O.3       1 ATP         0.4672
      9 PA          1.5549   -2.4565   -3.2403 P.3       1 ATP        -1.1062
     10 O1A         2.0329   -3.8889   -3.3372 O.co2     1 ATP         0.3195
     11 O2A         0.1079   -2.1437   -2.9265 O.co2     1 ATP         0.3195
     12 O3A         1.9735   -1.6812   -4.6162 O.3       1 ATP         0.4672
     13 O5'         2.5245   -1.6648   -2.1878 O.3       1 ATP         0.1618
     14 C5'         2.2816   -0.2918   -1.9206 C.3       1 ATP         0.1504
     15 C4'         2.7248    0.0226   -0.4980 C.3       1 ATP         0.1111
     16 O4'         2.4697    1.4219   -0.2462 O.3       1 ATP        -0.1436
     17 C3'         1.9404   -0.7419    0.5596 C.3       1 ATP         0.1111
     18 O3'         2.7418   -0.8086    1.7389 O.3       1 ATP        -0.2728
     19 C2'         0.7477    0.1630    0.7858 C.3       1 ATP         0.1111
     20 O2'         0.1373   -0.0577    2.0407 O.3       1 ATP        -0.2728
     21 C1'         1.3733    1.5427    0.6747 C.3       1 ATP         0.2693
     22 N9          0.4520    2.5240    0.1767 N.pl3     1 ATP        -0.3222
     23 C8          0.1798    2.8712   -1.2933 C.ar      1 ATP         0.1640
     24 N7         -0.7494    3.8400   -1.3610 N.2       1 ATP        -0.1640
     25 C5         -1.0173    4.0603   -0.0358 C.ar      1 ATP         0.0820
     26 C6         -2.0105    5.0717    0.4241 C.ar      1 ATP         0.1640
     27 N6         -2.6723    5.7982   -0.4628 N.pl3     1 ATP        -0.4916
     28 N1         -2.1445    5.1522    1.7502 N.pl3     1 ATP        -0.4390
     29 C2         -1.3755    4.3143    2.6427 C.ar      1 ATP         0.5691
     30 N3         -0.5075    3.4292    2.2616 N.ar      1 ATP        -0.4283
     31 C4         -0.3667    3.3425    0.9070 C.ar      1 ATP         0.2226
     32 H5'1        2.8432    0.3119   -2.6398 H         1 ATP        -0.0393
     33 H5'2        1.2128   -0.0927   -2.0428 H         1 ATP        -0.0393
     34 H4'         3.8040   -0.1399   -0.4044 H         1 ATP        -0.0393
     35 H3'         1.6768   -1.7637    0.2732 H         1 ATP        -0.0393
     36 HO3'        2.2231   -1.2979    2.3952 H         1 ATP         0.2010
     37 H2'         0.0002   -0.0084   -0.0014 H         1 ATP        -0.0393
     38 HO2'       -0.6132    0.5577    2.1063 H         1 ATP         0.2010
     39 H1'         1.7718    1.9211    1.6015 H         1 ATP        -0.0393
     40 H8          0.6089    2.4651   -2.2147 H         1 ATP         0.0000
     41 HN61       -2.5055    5.6680   -1.4503 H         1 ATP         0.2048
     42 HN62       -3.3462    6.4841   -0.1542 H         1 ATP         0.2048
     43 H2         -1.5932    4.4937    3.7066 H         1 ATP        -0.1292
     44 H44        -2.8098    5.8270    2.1160 H         1 ATP         0.2048
@<TRIPOS>BOND
     1    1    2 2
     2    1    3 1
     3    1    4 1
     4    1    8 1
     5    5    6 2
     6    5    7 1
     7    5    8 1
     8    5   12 1
     9    9   10 2
    10    9   11 1
    11    9   12 1
    12    9   13 1
    13   13   14 1
    14   14   15 1
    15   14   32 1
    16   14   33 1
    17   15   16 1
    18   15   17 1
    19   15   34 1
    20   16   21 1
    21   17   18 1
    22   17   19 1
    23   17   35 1
    24   18   36 1
    25   19   20 1
    26   19   21 1
    27   19   37 1
    28   20   38 1
    29   21   22 1
    30   21   39 1
    31   22   23 ar
    32   22   31 ar
    33   23   24 ar
    34   23   40 1
    35   24   25 ar
    36   25   26 ar
    37   25   31 ar
    38   26   27 1
    39   26   28 ar
    40   27   41 1
    41   27   42 1
    42   28   29 ar
    43   28   44 1
    44   29   30 ar
    45   29   43 1
    46   30   31 ar
@<TRIPOS>SUBSTRUCTURE
     1 ATP         1 GROUP 0 A     ****
@<TRIPOS>MOLECULE
[[[5-(6-amino-1,8-dihydropurine-6,8-diylium-7-id-9-yl)-3,4-dihydroxy-tetrahydrofuran-2-yl]methoxy-oxido-phosphoryl]oxy-oxido-phosphoryl] phosphate
   44    46     1     0     0
SMALL
USER_CHARGES

@<TRIPOS>ATOM
      1 PG          8.5481   -2.4213   -1.3803 P.3       1 ATP        -1.1921
      2 O1G         9.6438   -1.6874   -2.1463 O.co2     1 ATP         0.3195
      3 O2G         8.5698   -2.1880    0.1266 O.co2     1 ATP         0.3195
      4 O3G         8.3711   -3.8810   -1.7853 O.co2     1 ATP         0.3195
      5 PB          6.5122   -1.5789   -3.3802 P.3       1 ATP        -1.1062
      6 O1B         7.4068   -0.6952   -4.2205 O.co2     1 ATP         0.3195
      7 O2B         6.1079   -2.9580   -3.8513 O.co2     1 ATP         0.3195
      8 O3B         7.1516   -1.7015   -1.8817 O.3       1 ATP         0.4672
      9 PA          3.9556   -0.2056   -3.9568 P.3       1 ATP        -1.1062
     10 O1A         3.2059   -1.4054   -4.4936 O.co2     1 ATP         0.3195
     11 O2A         4.5101    0.8435   -4.8959 O.co2     1 ATP         0.3195
     12 O3A         5.1637   -0.7424   -2.9966 O.3       1 ATP         0.4672
     13 O5'         3.0213    0.5153   -2.8245 O.3       1 ATP         0.1618
     14 C5'         2.2816   -0.2918   -1.9206 C.3       1 ATP         0.1504
     15 C4'         2.7248    0.0226   -0.4980 C.3       1 ATP         0.1111
     16 O4'         2.4697    1.4219   -0.2462 O.3       1 ATP        -0.1436
     17 C3'         1.9404   -0.7419    0.5596 C.3       1 ATP         0.1111
     18 O3'         2.7418   -0.8086    1.7389 O.3       1 ATP        -0.2728
     19 C2'         0.7477    0.1630    0.7858 C.3       1 ATP         0.1111
     20 O2'         0.1373   -0.0577    2.0407 O.3       1 ATP        -0.2728
     21 C1'         1.3733    1.5427    0.6747 C.3       1 ATP         0.2693
     22 N9          0.4520    2.5240    0.1767 N.pl3     1 ATP        -0.3222
     23 C8          0.1798    2.8712   -1.2933 C.ar      1 ATP         0.1640
     24 N7         -0.7494    3.8400   -1.3610 N.2       1 ATP        -0.1640
     25 C5         -1.0173    4.0603   -0.0358 C.ar      1 ATP         0.0820
     26 C6         -2.0105    5.0717    0.4241 C.ar      1 ATP         0.1640
     27 N6         -2.6723    5.7982   -0.4628 N.pl3     1 ATP        -0.4916
     28 N1         -2.1445    5.1522    1.7502 N.pl3     1 ATP        -0.4390
     29 C2         -1.3755    4.3143    2.6427 C.ar      1 ATP         0.5691
     30 N3         -0.5075    3.4292    2.2616 N.ar      1 ATP        -0.4283
     31 C4         -0.3667    3.3425    0.9070 C.ar      1 ATP         0.2226
     32 H5'1        1.2163   -0.0770   -2.0471 H         1 ATP        -0.0393
     33 H5'2        2.4655   -1.3443   -2.1563 H         1 ATP        -0.0393
     34 H4'         3.8040   -0.1399   -0.4044 H         1 ATP        -0.0393
     35 H3'         1.6768   -1.7637    0.2732 H         1 ATP        -0.0393
     36 HO3'        2.2231   -1.2979    2.3952 H         1 ATP         0.2010
     37 H2'         0.0002   -0.0084   -0.0014 H         1 ATP        -0.0393
     38 HO2'       -0.6132    0.5577    2.1063 H         1 ATP         0.2010
     39 H1'         1.7718    1.9211    1.6015 H         1 ATP        -0.0393
     40 H8          0.6089    2.4651   -2.2147 H         1 ATP         0.0000
     41 HN61       -2.5055    5.6680   -1.4503 H         1 ATP         0.2048
     42 HN62       -3.3462    6.4841   -0.1542 H         1 ATP         0.2048
     43 H2         -1.5932    4.4937    3.7066 H         1 ATP        -0.1292
     44 H44        -2.8098    5.8270    2.1160 H         1 ATP         0.2048
@<TRIPOS>BOND
     1    1    2 2
     2    1    3 1
     3    1    4 1
     4    1    8 1
     5    5    6 2
     6    5    7 1
     7    5    8 1
     8    5   12 1
     9    9   10 2
    10    9   11 1
    11    9   12 1
    12    9   13 1
    13   13   14 1
    14   14   15 1
    15   14   32 1
    16   14   33 1
    17   15   16 1
    18   15   17 1
    19   15   34 1
    20   16   21 1
    21   17   18 1
    22   17   19 1
    23   17   35 1
    24   18   36 1
    25   19   20 1
    26   19   21 1
    27   19   37 1
    28   20   38 1
    29   21   22 1
    30   21   39 1
    31   22   23 ar
    32   22   31 ar
    33   23   24 ar
    34   23   40 1
    35   24   25 ar
    36   25   26 ar
    37   25   31 ar
    38   26   27 1
    39   26   28 ar
    40   27   41 1
    41   27   42 1
    42   28   29 ar
    43   28   44 1
    44   29   30 ar
    45   29   43 1
    46   30   31 ar
@<TRIPOS>SUBSTRUCTURE
     1 ATP         1 GROUP 0 A     ****
@<TRIPOS>MOLECULE
[[[5-(6-amino-1,8-dihydropurine-6,8-diylium-7-id-9-yl)-3,4-dihydroxy-tetrahydrofuran-2-yl]methoxy-oxido-phosphoryl]oxy-oxido-phosphoryl] phosphate
   44    46     1     0     0
SMALL
USER_CHARGES

@<TRIPOS>ATOM
      1 PG          7.1659   -0.2357   -6.0009 P.3       1 ATP        -1.1921
      2 O1G         7.6765   -1.5600   -6.5588 O.co2     1 ATP         0.3195
      3 O2G         6.2828    0.5530   -6.9619 O.co2     1 ATP         0.3195
      4 O3G         8.2312    0.6008   -5.3000 O.co2     1 ATP         0.3195
      5 PB          6.4400   -1.5393   -3.4265 P.3       1 ATP        -1.1062
      6 O1B         6.7742   -2.9615   -3.8179 O.co2     1 ATP         0.3195
      7 O2B         7.3559   -0.7383   -2.5282 O.co2     1 ATP         0.3195
      8 O3B         6.1460   -0.6759   -4.7819 O.3       1 ATP         0.4672
      9 PA          3.5298   -2.0738   -3.4112 P.3       1 ATP        -1.1062
     10 O1A         3.6081   -3.5837   -3.4735 O.co2     1 ATP         0.3195
     11 O2A         3.1811   -1.2660   -4.6424 O.co2     1 ATP         0.3195
     12 O3A         4.9348   -1.5118   -2.7948 O.3       1 ATP         0.4672
     13 O5'         2.5245   -1.6648   -2.1878 O.3       1 ATP         0.1618
     14 C5'         2.2816   -0.2918   -1.9206 C.3       1 ATP         0.1504
     15 C4'         2.7248    0.0226   -0.4980 C.3       1 ATP         0.1111
     16 O4'         2.4697    1.4219   -0.2462 O.3       1 ATP        -0.1436
     17 C3'         1.9404   -0.7419    0.5596 C.3       1 ATP         0.1111
     18 O3'         2.7418   -0.8086    1.7389 O.3       1 ATP        -0.2728
     19 C2'         0.7477    0.1630    0.7858 C.3       1 ATP         0.1111
     20 O2'         0.1373   -0.0577    2.0407 O.3       1 ATP        -0.2728
     21 C1'         1.3733    1.5427    0.6747 C.3       1 ATP         0.2693
     22 N9          0.4520    2.5240    0.1767 N.pl3     1 ATP        -0.3222
     23 C8          0.1798    2.8712   -1.2933 C.ar      1 ATP         0.1640
     24 N7         -0.7494    3.8400   -1.3610 N.2       1 ATP        -0.1640
     25 C5         -1.0173    4.0603   -0.0358 C.ar      1 ATP         0.0820
     26 C6         -2.0105    5.0717    0.4241 C.ar      1 ATP         0.1640
     27 N6         -2.6723    5.7982   -0.4628 N.pl3     1 ATP        -0.4916
     28 N1         -2.1445    5.1522    1.7502 N.pl3     1 ATP        -0.4390
     29 C2         -1.3755    4.3143    2.6427 C.ar      1 ATP         0.5691
     30 N3         -0.5075    3.4292    2.2616 N.ar      1 ATP        -0.4283
     31 C4         -0.3667    3.3425    0.9070 C.ar      1 ATP         0.2226
     32 H5'1        2.8432    0.3119   -2.6398 H         1 ATP        -0.0393
     33 H5'2        1.2128   -0.0927   -2.0428 H         1 ATP        -0.0393
     34 H4'         3.8040   -0.1399   -0.4044 H         1 ATP        -0.0393
     35 H3'         1.6768   -1.7637    0.2732 H         1 ATP        -0.0393
     36 HO3'        2.2231   -1.2979    2.3952 H         1 ATP         0.2010
     37 H2'         0.0002   -0.0084   -0.0014 H         1 ATP        -0.0393
     38 HO2'       -0.6132    0.5577    2.1063 H         1 ATP         0.2010
     39 H1'         1.7718    1.9211    1.6015 H         1 ATP        -0.0393
     40 H8          0.6089    2.4651   -2.2147 H         1 ATP         0.0000
     41 HN61       -2.5055    5.6680   -1.4503 H         1 ATP         0.2048
     42 HN62       -3.3462    6.4841   -0.1542 H         1 ATP         0.2048
     43 H2         -1.5932    4.4937    3.7066 H         1 ATP        -0.1292
     44 H44        -2.8098    5.8270    2.1160 H         1 ATP         0.2048
@<TRIPOS>BOND
     1    1    2 2
     2    1    3 1
     3    1    4 1
     4    1    8 1
     5    5    6 2
     6    5    7 1
     7    5    8 1
     8    5   12 1
     9    9   10 2
    10    9   11 1
    11    9   12 1
    12    9   13 1
    13   13   14 1
    14   14   15 1
    15   14   32 1
    16   14   33 1
    17   15   16 1
    18   15   17 1
    19   15   34 1
    20   16   21 1
    21   17   18 1
    22   17   19 1
    23   17   35 1
    24   18   36 1
    25   19   20 1
    26   19   21 1
    27   19   37 1
    28   20   38 1
    29   21   22 1
    30   21   39 1
    31   22   23 ar
    32   22   31 ar
    33   23   24 ar
    34   23   40 1
    35   24   25 ar
    36   25   26 ar
    37   25   31 ar
    38   26   27 1
    39   26   28 ar
    40   27   41 1
    41   27   42 1
    42   28   29 ar
    43   28   44 1
    44   29   30 ar
    45   29   43 1
    46   30   31 ar
@<TRIPOS>SUBSTRUCTURE
     1 ATP         1 GROUP 0 A     ****
@<TRIPOS>MOLECULE
[[[5-(6-amino-1,8-dihydropurine-6,8-diylium-7-id-9-yl)-3,4-dihydroxy-tetrahydrofuran-2-yl]methoxy-oxido-phosphoryl]oxy-oxido-phosphoryl] phosphate
   44    46     1     0     0
SMALL
USER_CHARGES

@<TRIPOS>ATOM
      1 PG         -0.3144   -3.4854   -6.7173 P.3       1 ATP        -1.1921
      2 O1G         0.5310   -3.7683   -7.9547 O.co2     1 ATP         0.3195
      3 O2G        -0.5270   -4.6934   -5.8111 O.co2     1 ATP         0.3195
      4 O3G        -1.5796   -2.6801   -6.9941 O.co2     1 ATP         0.3195
      5 PB          1.2076   -0.9847   -6.1842 P.3       1 ATP        -1.1062
      6 O1B         2.2314   -1.1312   -7.2877 O.co2     1 ATP         0.3195
      7 O2B         0.0541   -0.0146   -6.3098 O.co2     1 ATP         0.3195
      8 O3B         0.6145   -2.4621   -5.8173 O.3       1 ATP         0.4672
      9 PA          2.8629    0.6171   -4.3271 P.3       1 ATP        -1.1062
     10 O1A         1.9237    1.7962   -4.1954 O.co2     1 ATP         0.3195
     11 O2A         4.0968    0.7049   -5.1988 O.co2     1 ATP         0.3195
     12 O3A         1.9898   -0.6867   -4.7825 O.3       1 ATP         0.4672
     13 O5'         3.2903    0.1346   -2.8241 O.3       1 ATP         0.1618
     14 C5'         2.2816   -0.2918   -1.9206 C.3       1 ATP         0.1504
     15 C4'         2.7248    0.0226   -0.4980 C.3       1 ATP         0.1111
     16 O4'         2.4697    1.4219   -0.2462 O.3       1 ATP        -0.1436
     17 C3'         1.9404   -0.7419    0.5596 C.3       1 ATP         0.1111
     18 O3'         2.7418   -0.8086    1.7389 O.3       1 ATP        -0.2728
     19 C2'         0.7477    0.1630    0.7858 C.3       1 ATP         0.1111
     20 O2'         0.1373   -0.0577    2.0407 O.3       1 ATP        -0.2728
     21 C1'         1.3733    1.5427    0.6747 C.3       1 ATP         0.2693
     22 N9          0.4520    2.5240    0.1767 N.pl3     1 ATP        -0.3222
     23 C8         -0.3054    2.4845   -1.1576 C.ar      1 ATP         0.1640
     24 N7         -1.0755    3.5806   -1.2691 N.2       1 ATP        -0.1640
     25 C5         -0.8043    4.2306   -0.0942 C.ar      1 ATP         0.0820
     26 C6         -1.4324    5.5335    0.2646 C.ar      1 ATP         0.1640
     27 N6         -2.2885    6.1054   -0.5675 N.pl3     1 ATP        -0.4916
     28 N1         -1.0537    6.0229    1.4478 N.pl3     1 ATP        -0.4390
     29 C2         -0.1096    5.3242    2.2908 C.ar      1 ATP         0.5691
     30 N3          0.4468    4.1904    1.9960 N.ar      1 ATP        -0.4283
     31 C4          0.0631    3.6855    0.7877 C.ar      1 ATP         0.2226
     32 H5'1        1.3514    0.2330   -2.1577 H         1 ATP        -0.0393
     33 H5'2        2.1280   -1.3678   -2.0460 H         1 ATP        -0.0393
     34 H4'         3.8040   -0.1399   -0.4044 H         1 ATP        -0.0393
     35 H3'         1.6768   -1.7637    0.2732 H         1 ATP        -0.0393
     36 HO3'        2.2231   -1.2979    2.3952 H         1 ATP         0.2010
     37 H2'         0.0002   -0.0084   -0.0014 H         1 ATP        -0.0393
     38 HO2'       -0.6132    0.5577    2.1063 H         1 ATP         0.2010
     39 H1'         1.7718    1.9211    1.6015 H         1 ATP        -0.0393
     40 H8         -0.2991    1.7413   -1.9611 H         1 ATP         0.0000
     41 HN61       -2.5167    5.6603   -1.4447 H         1 ATP         0.2048
     42 HN62       -2.7159    6.9882   -0.3270 H         1 ATP         0.2048
     43 H2          0.1059    5.8491    3.2340 H         1 ATP        -0.1292
     44 H44        -1.4532    6.9099    1.7401 H         1 ATP         0.2048
@<TRIPOS>BOND
     1    1    2 2
     2    1    3 1
     3    1    4 1
     4    1    8 1
     5    5    6 2
     6    5    7 1
     7    5    8 1
     8    5   12 1
     9    9   10 2
    10    9   11 1
    11    9   12 1
    12    9   13 1
    13   13   14 1
    14   14   15 1
    15   14   32 1
    16   14   33 1
    17   15   16 1
    18   15   17 1
    19   15   34 1
    20   16   21 1
    21   17   18 1
    22   17   19 1
    23   17   35 1
    24   18   36 1
    25   19   20 1
    26   19   21 1
    27   19   37 1
    28   20   38 1
    29   21   22 1
    30   21   39 1
    31   22   23 ar
    32   22   31 ar
    33   23   24 ar
    34   23   40 1
    35   24   25 ar
    36   25   26 ar
    37   25   31 ar
    38   26   27 1
    39   26   28 ar
    40   27   41 1
    41   27   42 1
    42   28   29 ar
    43   28   44 1
    44   29   30 ar
    45   29   43 1
    46   30   31 ar
@<TRIPOS>SUBSTRUCTURE
     1 ATP         1 GROUP 0 A     ****
@<TRIPOS>MOLECULE
[[[5-(6-amino-1,8-dihydropurine-6,8-diylium-7-id-9-yl)-3,4-dihydroxy-tetrahydrofuran-2-yl]methoxy-oxido-phosphoryl]oxy-oxido-phosphoryl] phosphate
   44    46     1     0     0
SMALL
USER_CHARGES

@<TRIPOS>ATOM
      1 PG          2.3990   -3.8720   -7.1243 P.3       1 ATP        -1.1921
      2 O1G         2.7642   -3.2164   -8.4519 O.co2     1 ATP         0.3195
      3 O2G         3.4927   -4.7589   -6.5388 O.co2     1 ATP         0.3195
      4 O3G         1.0065   -4.4935   -7.0950 O.co2     1 ATP         0.3195
      5 PB          1.3155   -1.3003   -6.0917 P.3       1 ATP        -1.1062
      6 O1B         1.6987   -0.4315   -7.2689 O.co2     1 ATP         0.3195
      7 O2B        -0.1130   -1.7512   -5.8831 O.co2     1 ATP         0.3195
      8 O3B         2.2898   -2.6115   -6.0665 O.3       1 ATP         0.4672
      9 PA          3.3347   -0.0507   -4.3265 P.3       1 ATP        -1.1062
     10 O1A         3.6687    1.1277   -5.2151 O.co2     1 ATP         0.3195
     11 O2A         4.2681   -1.2382   -4.2337 O.co2     1 ATP         0.3195
     12 O3A         1.8422   -0.5852   -4.7217 O.3       1 ATP         0.4672
     13 O5'         3.0213    0.5153   -2.8245 O.3       1 ATP         0.1618
     14 C5'         2.2816   -0.2918   -1.9206 C.3       1 ATP         0.1504
     15 C4'         2.7248    0.0226   -0.4980 C.3       1 ATP         0.1111
     16 O4'         2.4697    1.4219   -0.2462 O.3       1 ATP        -0.1436
     17 C3'         1.9404   -0.7419    0.5596 C.3       1 ATP         0.1111
     18 O3'         2.7418   -0.8086    1.7389 O.3       1 ATP        -0.2728
     19 C2'         0.7477    0.1630    0.7858 C.3       1 ATP         0.1111
     20 O2'         0.1373   -0.0577    2.0407 O.3       1 ATP        -0.2728
     21 C1'         1.3733    1.5427    0.6747 C.3       1 ATP         0.2693
     22 N9          0.4520    2.5240    0.1767 N.pl3     1 ATP        -0.3222
     23 C8          0.1798    2.8712   -1.2933 C.ar      1 ATP         0.1640
     24 N7         -0.7494    3.8400   -1.3610 N.2       1 ATP        -0.1640
     25 C5         -1.0173    4.0603   -0.0358 C.ar      1 ATP         0.0820
     26 C6         -2.0105    5.0717    0.4241 C.ar      1 ATP         0.1640
     27 N6         -2.6723    5.7982   -0.4628 N.pl3     1 ATP        -0.4916
     28 N1         -2.1445    5.1522    1.7502 N.pl3     1 ATP        -0.4390
     29 C2         -1.3755    4.3143    2.6427 C.ar      1 ATP         0.5691
     30 N3         -0.5075    3.4292    2.2616 N.ar      1 ATP        -0.4283
     31 C4         -0.3667    3.3425    0.9070 C.ar      1 ATP         0.2226
     32 H5'1        1.2163   -0.0770   -2.0471 H         1 ATP        -0.0393
     33 H5'2        2.4655   -1.3443   -2.1563 H         1 ATP        -0.0393
     34 H4'         3.8040   -0.1399   -0.4044 H         1 ATP        -0.0393
     35 H3'         1.6768   -1.7637    0.2732 H         1 ATP        -0.0393
     36 HO3'        3.5553   -1.2733    1.4913 H         1 ATP         0.2010
     37 H2'         0.0002   -0.0084   -0.0014 H         1 ATP        -0.0393
     38 HO2'       -0.1554   -0.9852    2.0577 H         1 ATP         0.2010
     39 H1'         1.7718    1.9211    1.6015 H         1 ATP        -0.0393
     40 H8          0.6089    2.4651   -2.2147 H         1 ATP         0.0000
     41 HN61       -2.5055    5.6680   -1.4503 H         1 ATP         0.2048
     42 HN62       -3.3462    6.4841   -0.1542 H         1 ATP         0.2048
     43 H2         -1.5932    4.4937    3.7066 H         1 ATP        -0.1292
     44 H44        -2.8098    5.8270    2.1160 H         1 ATP         0.2048
@<TRIPOS>BOND
     1    1    2 2
     2    1    3 1
     3    1    4 1
     4    1    8 1
     5    5    6 2
     6    5    7 1
     7    5    8 1
     8    5   12 1
     9    9   10 2
    10    9   11 1
    11    9   12 1
    12    9   13 1
    13   13   14 1
    14   14   15 1
    15   14   32 1
    16   14   33 1
    17   15   16 1
    18   15   17 1
    19   15   34 1
    20   16   21 1
    21   17   18 1
    22   17   19 1
    23   17   35 1
    24   18   36 1
    25   19   20 1
    26   19   21 1
    27   19   37 1
    28   20   38 1
    29   21   22 1
    30   21   39 1
    31   22   23 ar
    32   22   31 ar
    33   23   24 ar
    34   23   40 1
    35   24   25 ar
    36   25   26 ar
    37   25   31 ar
    38   26   27 1
    39   26   28 ar
    40   27   41 1
    41   27   42 1
    42   28   29 ar
    43   28   44 1
    44   29   30 ar
    45   29   43 1
    46   30   31 ar
@<TRIPOS>SUBSTRUCTURE
     1 ATP         1 GROUP 0 A     ****
@<TRIPOS>MOLECULE
[[[5-(6-amino-1,8-dihydropurine-6,8-diylium-7-id-9-yl)-3,4-dihydroxy-tetrahydrofuran-2-yl]methoxy-oxido-phosphoryl]oxy-oxido-phosphoryl] phosphate
   44    46     1     0     0
SMALL
USER_CHARGES

@<TRIPOS>ATOM
      1 PG         -2.5247    2.3020   -5.5270 P.3       1 ATP        -1.1921
      2 O1G        -3.1211    1.0513   -6.1640 O.co2     1 ATP         0.3195
      3 O2G        -3.2636    2.7888   -4.2849 O.co2     1 ATP         0.3195
      4 O3G        -2.1761    3.4053   -6.5206 O.co2     1 ATP         0.3195
      5 PB          0.2195    1.1748   -5.7563 P.3       1 ATP        -1.1062
      6 O1B        -0.1648   -0.1877   -6.2888 O.co2     1 ATP         0.3195
      7 O2B         0.7994    2.2357   -6.6648 O.co2     1 ATP         0.3195
      8 O3B        -1.0581    1.8069   -4.9580 O.3       1 ATP         0.4672
      9 PA          2.7413    0.3775   -4.4298 P.3       1 ATP        -1.1062
     10 O1A         3.6560    1.3416   -5.1533 O.co2     1 ATP         0.3195
     11 O2A         2.7031   -1.0864   -4.8115 O.co2     1 ATP         0.3195
     12 O3A         1.2211    0.9740   -4.4828 O.3       1 ATP         0.4672
     13 O5'         3.0213    0.5153   -2.8245 O.3       1 ATP         0.1618
     14 C5'         2.2816   -0.2918   -1.9206 C.3       1 ATP         0.1504
     15 C4'         2.7248    0.0226   -0.4980 C.3       1 ATP         0.1111
     16 O4'         2.4697    1.4219   -0.2462 O.3       1 ATP        -0.1436
     17 C3'         1.9404   -0.7419    0.5596 C.3       1 ATP         0.1111
     18 O3'         2.7418   -0.8086    1.7389 O.3       1 ATP        -0.2728
     19 C2'         0.7477    0.1630    0.7858 C.3       1 ATP         0.1111
     20 O2'         0.1373   -0.0577    2.0407 O.3       1 ATP        -0.2728
     21 C1'         1.3733    1.5427    0.6747 C.3       1 ATP         0.2693
     22 N9          0.4520    2.5240    0.1767 N.pl3     1 ATP        -0.3222
     23 C8         -1.0247    2.3053   -0.1800 C.ar      1 ATP         0.1640
     24 N7         -1.5580    3.4612   -0.6116 N.2       1 ATP        -0.1640
     25 C5         -0.4873    4.3110   -0.5222 C.ar      1 ATP         0.0820
     26 C6         -0.5728    5.7505   -0.8981 C.ar      1 ATP         0.1640
     27 N6         -1.7163    6.2514   -1.3385 N.pl3     1 ATP        -0.4916
     28 N1          0.5667    6.4301   -0.7475 N.pl3     1 ATP        -0.4390
     29 C2          1.7697    5.7952   -0.2579 C.ar      1 ATP         0.5691
     30 N3          1.8633    4.5450    0.0742 N.ar      1 ATP        -0.4283
     31 C4          0.7014    3.8457   -0.0776 C.ar      1 ATP         0.2226
     32 H5'1        1.2163   -0.0770   -2.0471 H         1 ATP        -0.0393
     33 H5'2        2.4655   -1.3443   -2.1563 H         1 ATP        -0.0393
     34 H4'         3.8040   -0.1399   -0.4044 H         1 ATP        -0.0393
     35 H3'         1.6768   -1.7637    0.2732 H         1 ATP        -0.0393
     36 HO3'        2.2231   -1.2979    2.3952 H         1 ATP         0.2010
     37 H2'         0.0002   -0.0084   -0.0014 H         1 ATP        -0.0393
     38 HO2'       -0.1554   -0.9852    2.0577 H         1 ATP         0.2010
     39 H1'         1.7718    1.9211    1.6015 H         1 ATP        -0.0393
     40 H8         -1.6458    1.4054   -0.1318 H         1 ATP         0.0000
     41 HN61       -2.5307    5.6598   -1.4199 H         1 ATP         0.2048
     42 HN62       -1.7773    7.2266   -1.5938 H         1 ATP         0.2048
     43 H2          2.6279    6.4808   -0.1872 H         1 ATP        -0.1292
     44 H44         0.5621    7.4166   -0.9900 H         1 ATP         0.2048
@<TRIPOS>BOND
     1    1    2 2
     2    1    3 1
     3    1    4 1
     4    1    8 1
     5    5    6 2
     6    5    7 1
     7    5    8 1
     8    5   12 1
     9    9   10 2
    10    9   11 1
    11    9   12 1
    12    9   13 1
    13   13   14 1
    14   14   15 1
    15   14   32 1
    16   14   33 1
    17   15   16 1
    18   15   17 1
    19   15   34 1
    20   16   21 1
    21   17   18 1
    22   17   19 1
    23   17   35 1
    24   18   36 1
    25   19   20 1
    26   19   21 1
    27   19   37 1
    28   20   38 1
    29   21   22 1
    30   21   39 1
    31   22   23 ar
    32   22   31 ar
    33   23   24 ar
    34   23   40 1
    35   24   25 ar
    36   25   26 ar
    37   25   31 ar
    38   26   27 1
    39   26   28 ar
    40   27   41 1
    41   27   42 1
    42   28   29 ar
    43   28   44 1
    44   29   30 ar
    45   29   43 1
    46   30   31 ar
@<TRIPOS>SUBSTRUCTURE
     1 ATP         1 GROUP 0 A     ****
@<TRIPOS>MOLECULE
[[[5-(6-amino-1,8-dihydropurine-6,8-diylium-7-id-9-yl)-3,4-dihydroxy-tetrahydrofuran-2-yl]methoxy-oxido-phosphoryl]oxy-oxido-phosphoryl] phosphate
   44    46     1     0     0
SMALL
USER_CHARGES

@<TRIPOS>ATOM
      1 PG          1.6463    1.5537   -8.6041 P.3       1 ATP        -1.1921
      2 O1G         1.1187    2.9836   -8.5535 O.co2     1 ATP         0.3195
      3 O2G         3.0613    1.4245   -9.1581 O.co2     1 ATP         0.3195
      4 O3G         0.6571    0.5409   -9.1712 O.co2     1 ATP         0.3195
      5 PB          0.6565    1.0346   -5.8464 P.3       1 ATP        -1.1062
      6 O1B         0.1689    2.4330   -5.5393 O.co2     1 ATP         0.3195
      7 O2B        -0.3125   -0.0762   -6.1844 O.co2     1 ATP         0.3195
      8 O3B         1.7902    1.1187   -7.0198 O.3       1 ATP         0.4672
      9 PA          2.9240    1.2545   -3.9582 P.3       1 ATP        -1.1062
     10 O1A         2.4677    2.5117   -3.2503 O.co2     1 ATP         0.3195
     11 O2A         4.0284    1.3063   -4.9915 O.co2     1 ATP         0.3195
     12 O3A         1.6158    0.5359   -4.6230 O.3       1 ATP         0.4672
     13 O5'         3.2903    0.1346   -2.8241 O.3       1 ATP         0.1618
     14 C5'         2.2816   -0.2918   -1.9206 C.3       1 ATP         0.1504
     15 C4'         2.7248    0.0226   -0.4980 C.3       1 ATP         0.1111
     16 O4'         2.4697    1.4219   -0.2462 O.3       1 ATP        -0.1436
     17 C3'         1.9404   -0.7419    0.5596 C.3       1 ATP         0.1111
     18 O3'         2.7418   -0.8086    1.7389 O.3       1 ATP        -0.2728
     19 C2'         0.7477    0.1630    0.7858 C.3       1 ATP         0.1111
     20 O2'         0.1373   -0.0577    2.0407 O.3       1 ATP        -0.2728
     21 C1'         1.3733    1.5427    0.6747 C.3       1 ATP         0.2693
     22 N9          0.4520    2.5240    0.1767 N.pl3     1 ATP        -0.3222
     23 C8         -0.3054    2.4845   -1.1576 C.ar      1 ATP         0.1640
     24 N7         -1.0755    3.5806   -1.2691 N.2       1 ATP        -0.1640
     25 C5         -0.8043    4.2306   -0.0942 C.ar      1 ATP         0.0820
     26 C6         -1.4324    5.5335    0.2646 C.ar      1 ATP         0.1640
     27 N6         -2.2885    6.1054   -0.5675 N.pl3     1 ATP        -0.4916
     28 N1         -1.0537    6.0229    1.4478 N.pl3     1 ATP        -0.4390
     29 C2         -0.1096    5.3242    2.2908 C.ar      1 ATP         0.5691
     30 N3          0.4468    4.1904    1.9960 N.ar      1 ATP        -0.4283
     31 C4          0.0631    3.6855    0.7877 C.ar      1 ATP         0.2226
     32 H5'1        1.3514    0.2330   -2.1577 H         1 ATP        -0.0393
     33 H5'2        2.1280   -1.3678   -2.0460 H         1 ATP        -0.0393
     34 H4'         3.8040   -0.1399   -0.4044 H         1 ATP        -0.0393
     35 H3'         1.6768   -1.7637    0.2732 H         1 ATP        -0.0393
     36 HO3'        2.2231   -1.2979    2.3952 H         1 ATP         0.2010
     37 H2'         0.0002   -0.0084   -0.0014 H         1 ATP        -0.0393
     38 HO2'       -0.1554   -0.9852    2.0577 H         1 ATP         0.2010
     39 H1'         1.7718    1.9211    1.6015 H         1 ATP        -0.0393
     40 H8         -0.2991    1.7413   -1.9611 H         1 ATP         0.0000
     41 HN61       -2.5167    5.6603   -1.4447 H         1 ATP         0.2048
     42 HN62       -2.7159    6.9882   -0.3270 H         1 ATP         0.2048
     43 H2          0.1059    5.8491    3.2340 H         1 ATP        -0.1292
     44 H44        -1.4532    6.9099    1.7401 H         1 ATP         0.2048
@<TRIPOS>BOND
     1    1    2 2
     2    1    3 1
     3    1    4 1
     4    1    8 1
     5    5    6 2
     6    5    7 1
     7    5    8 1
     8    5   12 1
     9    9   10 2
    10    9   11 1
    11    9   12 1
    12    9   13 1
    13   13   14 1
    14   14   15 1
    15   14   32 1
    16   14   33 1
    17   15   16 1
    18   15   17 1
    19   15   34 1
    20   16   21 1
    21   17   18 1
    22   17   19 1
    23   17   35 1
    24   18   36 1
    25   19   20 1
    26   19   21 1
    27   19   37 1
    28   20   38 1
    29   21   22 1
    30   21   39 1
    31   22   23 ar
    32   22   31 ar
    33   23   24 ar
    34   23   40 1
    35   24   25 ar
    36   25   26 ar
    37   25   31 ar
    38   26   27 1
    39   26   28 ar
    40   27   41 1
    41   27   42 1
    42   28   29 ar
    43   28   44 1
    44   29   30 ar
    45   29   43 1
    46   30   31 ar
@<TRIPOS>SUBSTRUCTURE
     1 ATP         1 GROUP 0 A     ****
@<TRIPOS>MOLECULE
[[[5-(6-amino-1,8-dihydropurine-6,8-diylium-7-id-9-yl)-3,4-dihydroxy-tetrahydrofuran-2-yl]methoxy-oxido-phosphoryl]oxy-oxido-phosphoryl] phosphate
   44    46     1     0     0
SMALL
USER_CHARGES

@<TRIPOS>ATOM
      1 PG          6.4521    1.0800   -3.9789 P.3       1 ATP        -1.1921
      2 O1G         5.4313    1.0272   -2.8471 O.co2     1 ATP         0.3195
      3 O2G         7.8802    1.3633   -3.5252 O.co2     1 ATP         0.3195
      4 O3G         6.0056    1.8963   -5.1873 O.co2     1 ATP         0.3195
      5 PB          5.3226   -1.3949   -5.1843 P.3       1 ATP        -1.1062
      6 O1B         4.6623   -0.6347   -6.3129 O.co2     1 ATP         0.3195
      7 O2B         5.8580   -2.7942   -5.3906 O.co2     1 ATP         0.3195
      8 O3B         6.5069   -0.4671   -4.5475 O.3       1 ATP         0.4672
      9 PA          2.8604   -2.1325   -3.7186 P.3       1 ATP        -1.1062
     10 O1A         3.0741   -3.6304   -3.7186 O.co2     1 ATP         0.3195
     11 O2A         1.8730   -1.4921   -4.6699 O.co2     1 ATP         0.3195
     12 O3A         4.3126   -1.4064   -3.9016 O.3       1 ATP         0.4672
     13 O5'         2.5245   -1.6648   -2.1878 O.3       1 ATP         0.1618
     14 C5'         2.2816   -0.2918   -1.9206 C.3       1 ATP         0.1504
     15 C4'         2.7248    0.0226   -0.4980 C.3       1 ATP         0.1111
     16 O4'         2.4697    1.4219   -0.2462 O.3       1 ATP        -0.1436
     17 C3'         1.9404   -0.7419    0.5596 C.3       1 ATP         0.1111
     18 O3'         2.7418   -0.8086    1.7389 O.3       1 ATP        -0.2728
     19 C2'         0.7477    0.1630    0.7858 C.3       1 ATP         0.1111
     20 O2'         0.1373   -0.0577    2.0407 O.3       1 ATP        -0.2728
     21 C1'         1.3733    1.5427    0.6747 C.3       1 ATP         0.2693
     22 N9          0.4520    2.5240    0.1767 N.pl3     1 ATP        -0.3222
     23 C8         -0.3054    2.4845   -1.1576 C.ar      1 ATP         0.1640
     24 N7         -1.0755    3.5806   -1.2691 N.2       1 ATP        -0.1640
     25 C5         -0.8043    4.2306   -0.0942 C.ar      1 ATP         0.0820
     26 C6         -1.4324    5.5335    0.2646 C.ar      1 ATP         0.1640
     27 N6         -2.2885    6.1054   -0.5675 N.pl3     1 ATP        -0.4916
     28 N1         -1.0537    6.0229    1.4478 N.pl3     1 ATP        -0.4390
     29 C2         -0.1096    5.3242    2.2908 C.ar      1 ATP         0.5691
     30 N3          0.4468    4.1904    1.9960 N.ar      1 ATP        -0.4283
     31 C4          0.0631    3.6855    0.7877 C.ar      1 ATP         0.2226
     32 H5'1        2.8432    0.3119   -2.6398 H         1 ATP        -0.0393
     33 H5'2        1.2128   -0.0927   -2.0428 H         1 ATP        -0.0393
     34 H4'         3.8040   -0.1399   -0.4044 H         1 ATP        -0.0393
     35 H3'         1.6768   -1.7637    0.2732 H         1 ATP        -0.0393
     36 HO3'        2.2231   -1.2979    2.3952 H         1 ATP         0.2010
     37 H2'         0.0002   -0.0084   -0.0014 H         1 ATP        -0.0393
     38 HO2'       -0.1554   -0.9852    2.0577 H         1 ATP         0.2010
     39 H1'         1.7718    1.9211    1.6015 H         1 ATP        -0.0393
     40 H8         -0.2991    1.7413   -1.9611 H         1 ATP         0.0000
     41 HN61       -2.5167    5.6603   -1.4447 H         1 ATP         0.2048
     42 HN62       -2.7159    6.9882   -0.3270 H         1 ATP         0.2048
     43 H2          0.1059    5.8491    3.2340 H         1 ATP        -0.1292
     44 H44        -1.4532    6.9099    1.7401 H         1 ATP         0.2048
@<TRIPOS>BOND
     1    1    2 2
     2    1    3 1
     3    1    4 1
     4    1    8 1
     5    5    6 2
     6    5    7 1
     7    5    8 1
     8    5   12 1
     9    9   10 2
    10    9   11 1
    11    9   12 1
    12    9   13 1
    13   13   14 1
    14   14   15 1
    15   14   32 1
    16   14   33 1
    17   15   16 1
    18   15   17 1
    19   15   34 1
    20   16   21 1
    21   17   18 1
    22   17   19 1
    23   17   35 1
    24   18   36 1
    25   19   20 1
    26   19   21 1
    27   19   37 1
    28   20   38 1
    29   21   22 1
    30   21   39 1
    31   22   23 ar
    32   22   31 ar
    33   23   24 ar
    34   23   40 1
    35   24   25 ar
    36   25   26 ar
    37   25   31 ar
    38   26   27 1
    39   26   28 ar
    40   27   41 1
    41   27   42 1
    42   28   29 ar
    43   28   44 1
    44   29   30 ar
    45   29   43 1
    46   30   31 ar
@<TRIPOS>SUBSTRUCTURE
     1 ATP         1 GROUP 0 A     ****
@<TRIPOS>MOLECULE
[[[5-(6-amino-1,8-dihydropurine-6,8-diylium-7-id-9-yl)-3,4-dihydroxy-tetrahydrofuran-2-yl]methoxy-oxido-phosphoryl]oxy-oxido-phosphoryl] phosphate
   44    46     1     0     0
SMALL
USER_CHARGES

@<TRIPOS>ATOM
      1 PG         -0.9563   -0.9110   -5.9269 P.3       1 ATP        -1.1921
      2 O1G        -2.0488   -0.0070   -6.4882 O.co2     1 ATP         0.3195
      3 O2G        -0.8863   -2.2898   -6.5746 O.co2     1 ATP         0.3195
      4 O3G        -0.8808   -0.9304   -4.4037 O.co2     1 ATP         0.3195
      5 PB          1.0152    1.3151   -6.0352 P.3       1 ATP        -1.1062
      6 O1B         2.0137    1.7160   -7.0982 O.co2     1 ATP         0.3195
      7 O2B        -0.1527    2.2083   -5.6810 O.co2     1 ATP         0.3195
      8 O3B         0.4494   -0.1779   -6.3814 O.3       1 ATP         0.4672
      9 PA          3.0683   -0.0853   -4.4294 P.3       1 ATP        -1.1062
     10 O1A         4.2833    0.4538   -5.1525 O.co2     1 ATP         0.3195
     11 O2A         2.5798   -1.4950   -4.6828 O.co2     1 ATP         0.3195
     12 O3A         1.8276    0.9511   -4.6666 O.3       1 ATP         0.4672
     13 O5'         3.2903    0.1346   -2.8241 O.3       1 ATP         0.1618
     14 C5'         2.2816   -0.2918   -1.9206 C.3       1 ATP         0.1504
     15 C4'         2.7248    0.0226   -0.4980 C.3       1 ATP         0.1111
     16 O4'         2.4697    1.4219   -0.2462 O.3       1 ATP        -0.1436
     17 C3'         1.9404   -0.7419    0.5596 C.3       1 ATP         0.1111
     18 O3'         2.7418   -0.8086    1.7389 O.3       1 ATP        -0.2728
     19 C2'         0.7477    0.1630    0.7858 C.3       1 ATP         0.1111
     20 O2'         0.1373   -0.0577    2.0407 O.3       1 ATP        -0.2728
     21 C1'         1.3733    1.5427    0.6747 C.3       1 ATP         0.2693
     22 N9          0.4520    2.5240    0.1767 N.pl3     1 ATP        -0.3222
     23 C8          0.5793    3.3338   -1.1209 C.ar      1 ATP         0.1640
     24 N7         -0.4807    4.1508   -1.2458 N.2       1 ATP        -0.1640
     25 C5         -1.1921    3.8572   -0.1126 C.ar      1 ATP         0.0820
     26 C6         -2.4855    4.5203    0.2163 C.ar      1 ATP         0.1640
     27 N6         -2.9873    5.4319   -0.6020 N.pl3     1 ATP        -0.4916
     28 N1         -3.0414    4.1119    1.3596 N.pl3     1 ATP        -0.4390
     29 C2         -2.4169    3.1071    2.1904 C.ar      1 ATP         0.5691
     30 N3         -1.2928    2.5191    1.9210 N.ar      1 ATP        -0.4283
     31 C4         -0.7202    2.9326    0.7534 C.ar      1 ATP         0.2226
     32 H5'1        1.3514    0.2330   -2.1577 H         1 ATP        -0.0393
     33 H5'2        2.1280   -1.3678   -2.0460 H         1 ATP        -0.0393
     34 H4'         3.8040   -0.1399   -0.4044 H         1 ATP        -0.0393
     35 H3'         1.6768   -1.7637    0.2732 H         1 ATP        -0.0393
     36 HO3'        2.2231   -1.2979    2.3952 H         1 ATP         0.2010
     37 H2'         0.0002   -0.0084   -0.0014 H         1 ATP        -0.0393
     38 HO2'       -0.1554   -0.9852    2.0577 H         1 ATP         0.2010
     39 H1'         1.7718    1.9211    1.6015 H         1 ATP        -0.0393
     40 H8          1.3565    3.3309   -1.8916 H         1 ATP         0.0000
     41 HN61       -2.4952    5.6785   -1.4487 H         1 ATP         0.2048
     42 HN62       -3.8637    5.8828   -0.3819 H         1 ATP         0.2048
     43 H2         -2.9911    2.8734    3.1000 H         1 ATP        -0.1292
     44 H44        -3.9253    4.5332    1.6302 H         1 ATP         0.2048
@<TRIPOS>BOND
     1    1    2 2
     2    1    3 1
     3    1    4 1
     4    1    8 1
     5    5    6 2
     6    5    7 1
     7    5    8 1
     8    5   12 1
     9    9   10 2
    10    9   11 1
    11    9   12 1
    12    9   13 1
    13   13   14 1
    14   14   15 1
    15   14   32 1
    16   14   33 1
    17   15   16 1
    18   15   17 1
    19   15   34 1
    20   16   21 1
    21   17   18 1
    22   17   19 1
    23   17   35 1
    24   18   36 1
    25   19   20 1
    26   19   21 1
    27   19   37 1
    28   20   38 1
    29   21   22 1
    30   21   39 1
    31   22   23 ar
    32   22   31 ar
    33   23   24 ar
    34   23   40 1
    35   24   25 ar
    36   25   26 ar
    37   25   31 ar
    38   26   27 1
    39   26   28 ar
    40   27   41 1
    41   27   42 1
    42   28   29 ar
    43   28   44 1
    44   29   30 ar
    45   29   43 1
    46   30   31 ar
@<TRIPOS>SUBSTRUCTURE
     1 ATP         1 GROUP 0 A     ****
@<TRIPOS>MOLECULE
[[[5-(6-amino-1,8-dihydropurine-6,8-diylium-7-id-9-yl)-3,4-dihydroxy-tetrahydrofuran-2-yl]methoxy-oxido-phosphoryl]oxy-oxido-phosphoryl] phosphate
   44    46     1     0     0
SMALL
USER_CHARGES

@<TRIPOS>ATOM
      1 PG         -0.7449   -1.0163   -7.6782 P.3       1 ATP        -1.1921
      2 O1G        -2.1879   -0.7095   -7.2917 O.co2     1 ATP         0.3195
      3 O2G         0.0092    0.1641   -8.2813 O.co2     1 ATP         0.3195
      4 O3G        -0.5649   -2.3273   -8.4363 O.co2     1 ATP         0.3195
      5 PB         -0.2905   -2.4068   -5.0871 P.3       1 ATP        -1.1062
      6 O1B        -1.6338   -2.1093   -4.4590 O.co2     1 ATP         0.3195
      7 O2B         0.0273   -3.7762   -5.6448 O.co2     1 ATP         0.3195
      8 O3B         0.0115   -1.2873   -6.2380 O.3       1 ATP         0.4672
      9 PA          1.2687   -2.6351   -2.5828 P.3       1 ATP        -1.1062
     10 O1A         1.8046   -4.0313   -2.8128 O.co2     1 ATP         0.3195
     11 O2A         0.1239   -2.3946   -1.6228 O.co2     1 ATP         0.3195
     12 O3A         0.8833   -1.9876   -4.0326 O.3       1 ATP         0.4672
     13 O5'         2.5245   -1.6648   -2.1878 O.3       1 ATP         0.1618
     14 C5'         2.2816   -0.2918   -1.9206 C.3       1 ATP         0.1504
     15 C4'         2.7248    0.0226   -0.4980 C.3       1 ATP         0.1111
     16 O4'         2.4697    1.4219   -0.2462 O.3       1 ATP        -0.1436
     17 C3'         1.9404   -0.7419    0.5596 C.3       1 ATP         0.1111
     18 O3'         2.7418   -0.8086    1.7389 O.3       1 ATP        -0.2728
     19 C2'         0.7477    0.1630    0.7858 C.3       1 ATP         0.1111
     20 O2'         0.1373   -0.0577    2.0407 O.3       1 ATP        -0.2728
     21 C1'         1.3733    1.5427    0.6747 C.3       1 ATP         0.2693
     22 N9          0.4520    2.5240    0.1767 N.pl3     1 ATP        -0.3222
     23 C8          0.1798    2.8712   -1.2933 C.ar      1 ATP         0.1640
     24 N7         -0.7494    3.8400   -1.3610 N.2       1 ATP        -0.1640
     25 C5         -1.0173    4.0603   -0.0358 C.ar      1 ATP         0.0820
     26 C6         -2.0105    5.0717    0.4241 C.ar      1 ATP         0.1640
     27 N6         -2.6723    5.7982   -0.4628 N.pl3     1 ATP        -0.4916
     28 N1         -2.1445    5.1522    1.7502 N.pl3     1 ATP        -0.4390
     29 C2         -1.3755    4.3143    2.6427 C.ar      1 ATP         0.5691
     30 N3         -0.5075    3.4292    2.2616 N.ar      1 ATP        -0.4283
     31 C4         -0.3667    3.3425    0.9070 C.ar      1 ATP         0.2226
     32 H5'1        2.8432    0.3119   -2.6398 H         1 ATP        -0.0393
     33 H5'2        1.2128   -0.0927   -2.0428 H         1 ATP        -0.0393
     34 H4'         3.8040   -0.1399   -0.4044 H         1 ATP        -0.0393
     35 H3'         1.6768   -1.7637    0.2732 H         1 ATP        -0.0393
     36 HO3'        2.2231   -1.2979    2.3952 H         1 ATP         0.2010
     37 H2'         0.0002   -0.0084   -0.0014 H         1 ATP        -0.0393
     38 HO2'       -0.1554   -0.9852    2.0577 H         1 ATP         0.2010
     39 H1'         1.7718    1.9211    1.6015 H         1 ATP        -0.0393
     40 H8          0.6089    2.4651   -2.2147 H         1 ATP         0.0000
     41 HN61       -2.5055    5.6680   -1.4503 H         1 ATP         0.2048
     42 HN62       -3.3462    6.4841   -0.1542 H         1 ATP         0.2048
     43 H2         -1.5932    4.4937    3.7066 H         1 ATP        -0.1292
     44 H44        -2.8098    5.8270    2.1160 H         1 ATP         0.2048
@<TRIPOS>BOND
     1    1    2 2
     2    1    3 1
     3    1    4 1
     4    1    8 1
     5    5    6 2
     6    5    7 1
     7    5    8 1
     8    5   12 1
     9    9   10 2
    10    9   11 1
    11    9   12 1
    12    9   13 1
    13   13   14 1
    14   14   15 1
    15   14   32 1
    16   14   33 1
    17   15   16 1
    18   15   17 1
    19   15   34 1
    20   16   21 1
    21   17   18 1
    22   17   19 1
    23   17   35 1
    24   18   36 1
    25   19   20 1
    26   19   21 1
    27   19   37 1
    28   20   38 1
    29   21   22 1
    30   21   39 1
    31   22   23 ar
    32   22   31 ar
    33   23   24 ar
    34   23   40 1
    35   24   25 ar
    36   25   26 ar
    37   25   31 ar
    38   26   27 1
    39   26   28 ar
    40   27   41 1
    41   27   42 1
    42   28   29 ar
    43   28   44 1
    44   29   30 ar
    45   29   43 1
    46   30   31 ar
@<TRIPOS>SUBSTRUCTURE
     1 ATP         1 GROUP 0 A     ****
@<TRIPOS>MOLECULE
[[[5-(6-amino-1,8-dihydropurine-6,8-diylium-7-id-9-yl)-3,4-dihydroxy-tetrahydrofuran-2-yl]methoxy-oxido-phosphoryl]oxy-oxido-phosphoryl] phosphate
   44    46     1     0     0
SMALL
USER_CHARGES

@<TRIPOS>ATOM
      1 PG          2.9175   -0.3677   -8.2117 P.3       1 ATP        -1.1921
      2 O1G         1.7995    0.5622   -8.6713 O.co2     1 ATP         0.3195
      3 O2G         4.2831    0.3008   -8.0937 O.co2     1 ATP         0.3195
      4 O3G         2.9406   -1.7176   -8.9212 O.co2     1 ATP         0.3195
      5 PB          1.1818   -1.4809   -6.0665 P.3       1 ATP        -1.1062
      6 O1B        -0.0079   -0.5706   -6.2754 O.co2     1 ATP         0.3195
      7 O2B         1.1636   -2.9157   -6.5444 O.co2     1 ATP         0.3195
      8 O3B         2.5161   -0.7466   -6.6576 O.3       1 ATP         0.4672
      9 PA          2.8604   -2.1325   -3.7186 P.3       1 ATP        -1.1062
     10 O1A         4.1132   -1.4128   -4.1682 O.co2     1 ATP         0.3195
     11 O2A         2.7548   -3.6386   -3.8207 O.co2     1 ATP         0.3195
     12 O3A         1.5811   -1.4632   -4.4835 O.3       1 ATP         0.4672
     13 O5'         2.5245   -1.6648   -2.1878 O.3       1 ATP         0.1618
     14 C5'         2.2816   -0.2918   -1.9206 C.3       1 ATP         0.1504
     15 C4'         2.7248    0.0226   -0.4980 C.3       1 ATP         0.1111
     16 O4'         2.4697    1.4219   -0.2462 O.3       1 ATP        -0.1436
     17 C3'         1.9404   -0.7419    0.5596 C.3       1 ATP         0.1111
     18 O3'         2.7418   -0.8086    1.7389 O.3       1 ATP        -0.2728
     19 C2'         0.7477    0.1630    0.7858 C.3       1 ATP         0.1111
     20 O2'         0.1373   -0.0577    2.0407 O.3       1 ATP        -0.2728
     21 C1'         1.3733    1.5427    0.6747 C.3       1 ATP         0.2693
     22 N9          0.4520    2.5240    0.1767 N.pl3     1 ATP        -0.3222
     23 C8          0.1798    2.8712   -1.2933 C.ar      1 ATP         0.1640
     24 N7         -0.7494    3.8400   -1.3610 N.2       1 ATP        -0.1640
     25 C5         -1.0173    4.0603   -0.0358 C.ar      1 ATP         0.0820
     26 C6         -2.0105    5.0717    0.4241 C.ar      1 ATP         0.1640
     27 N6         -2.6723    5.7982   -0.4628 N.pl3     1 ATP        -0.4916
     28 N1         -2.1445    5.1522    1.7502 N.pl3     1 ATP        -0.4390
     29 C2         -1.3755    4.3143    2.6427 C.ar      1 ATP         0.5691
     30 N3         -0.5075    3.4292    2.2616 N.ar      1 ATP        -0.4283
     31 C4         -0.3667    3.3425    0.9070 C.ar      1 ATP         0.2226
     32 H5'1        2.8432    0.3119   -2.6398 H         1 ATP        -0.0393
     33 H5'2        1.2128   -0.0927   -2.0428 H         1 ATP        -0.0393
     34 H4'         3.8040   -0.1399   -0.4044 H         1 ATP        -0.0393
     35 H3'         1.6768   -1.7637    0.2732 H         1 ATP        -0.0393
     36 HO3'        3.5553   -1.2733    1.4913 H         1 ATP         0.2010
     37 H2'         0.0002   -0.0084   -0.0014 H         1 ATP        -0.0393
     38 HO2'       -0.6132    0.5577    2.1063 H         1 ATP         0.2010
     39 H1'         1.7718    1.9211    1.6015 H         1 ATP        -0.0393
     40 H8          0.6089    2.4651   -2.2147 H         1 ATP         0.0000
     41 HN61       -2.5055    5.6680   -1.4503 H         1 ATP         0.2048
     42 HN62       -3.3462    6.4841   -0.1542 H         1 ATP         0.2048
     43 H2         -1.5932    4.4937    3.7066 H         1 ATP        -0.1292
     44 H44        -2.8098    5.8270    2.1160 H         1 ATP         0.2048
@<TRIPOS>BOND
     1    1    2 2
     2    1    3 1
     3    1    4 1
     4    1    8 1
     5    5    6 2
     6    5    7 1
     7    5    8 1
     8    5   12 1
     9    9   10 2
    10    9   11 1
    11    9   12 1
    12    9   13 1
    13   13   14 1
    14   14   15 1
    15   14   32 1
    16   14   33 1
    17   15   16 1
    18   15   17 1
    19   15   34 1
    20   16   21 1
    21   17   18 1
    22   17   19 1
    23   17   35 1
    24   18   36 1
    25   19   20 1
    26   19   21 1
    27   19   37 1
    28   20   38 1
    29   21   22 1
    30   21   39 1
    31   22   23 ar
    32   22   31 ar
    33   23   24 ar
    34   23   40 1
    35   24   25 ar
    36   25   26 ar
    37   25   31 ar
    38   26   27 1
    39   26   28 ar
    40   27   41 1
    41   27   42 1
    42   28   29 ar
    43   28   44 1
    44   29   30 ar
    45   29   43 1
    46   30   31 ar
@<TRIPOS>SUBSTRUCTURE
     1 ATP         1 GROUP 0 A     ****
@<TRIPOS>MOLECULE
[[[5-(6-amino-1,8-dihydropurine-6,8-diylium-7-id-9-yl)-3,4-dihydroxy-tetrahydrofuran-2-yl]methoxy-oxido-phosphoryl]oxy-oxido-phosphoryl] phosphate
   44    46     1     0     0
SMALL
USER_CHARGES

@<TRIPOS>ATOM
      1 PG          8.5262   -1.9621   -3.0057 P.3       1 ATP        -1.1921
      2 O1G         8.8524   -3.4338   -3.2369 O.co2     1 ATP         0.3195
      3 O2G         9.2293   -1.0042   -3.9616 O.co2     1 ATP         0.3195
      4 O3G         8.5724   -1.5328   -1.5429 O.co2     1 ATP         0.3195
      5 PB          5.6264   -2.5868   -2.7712 P.3       1 ATP        -1.1062
      6 O1B         5.7094   -4.0610   -3.0987 O.co2     1 ATP         0.3195
      7 O2B         5.4305   -2.1101   -1.3493 O.co2     1 ATP         0.3195
      8 O3B         6.9309   -1.8333   -3.4035 O.3       1 ATP         0.4672
      9 PA          2.8604   -2.1325   -3.7186 P.3       1 ATP        -1.1062
     10 O1A         2.5876   -3.6167   -3.8296 O.co2     1 ATP         0.3195
     11 O2A         2.2368   -1.1565   -4.6926 O.co2     1 ATP         0.3195
     12 O3A         4.4786   -1.9068   -3.7123 O.3       1 ATP         0.4672
     13 O5'         2.5245   -1.6648   -2.1878 O.3       1 ATP         0.1618
     14 C5'         2.2816   -0.2918   -1.9206 C.3       1 ATP         0.1504
     15 C4'         2.7248    0.0226   -0.4980 C.3       1 ATP         0.1111
     16 O4'         2.4697    1.4219   -0.2462 O.3       1 ATP        -0.1436
     17 C3'         1.9404   -0.7419    0.5596 C.3       1 ATP         0.1111
     18 O3'         2.7418   -0.8086    1.7389 O.3       1 ATP        -0.2728
     19 C2'         0.7477    0.1630    0.7858 C.3       1 ATP         0.1111
     20 O2'         0.1373   -0.0577    2.0407 O.3       1 ATP        -0.2728
     21 C1'         1.3733    1.5427    0.6747 C.3       1 ATP         0.2693
     22 N9          0.4520    2.5240    0.1767 N.pl3     1 ATP        -0.3222
     23 C8          0.1798    2.8712   -1.2933 C.ar      1 ATP         0.1640
     24 N7         -0.7494    3.8400   -1.3610 N.2       1 ATP        -0.1640
     25 C5         -1.0173    4.0603   -0.0358 C.ar      1 ATP         0.0820
     26 C6         -2.0105    5.0717    0.4241 C.ar      1 ATP         0.1640
     27 N6         -2.6723    5.7982   -0.4628 N.pl3     1 ATP        -0.4916
     28 N1         -2.1445    5.1522    1.7502 N.pl3     1 ATP        -0.4390
     29 C2         -1.3755    4.3143    2.6427 C.ar      1 ATP         0.5691
     30 N3         -0.5075    3.4292    2.2616 N.ar      1 ATP        -0.4283
     31 C4         -0.3667    3.3425    0.9070 C.ar      1 ATP         0.2226
     32 H5'1        2.8432    0.3119   -2.6398 H         1 ATP        -0.0393
     33 H5'2        1.2128   -0.0927   -2.0428 H         1 ATP        -0.0393
     34 H4'         3.8040   -0.1399   -0.4044 H         1 ATP        -0.0393
     35 H3'         1.6768   -1.7637    0.2732 H         1 ATP        -0.0393
     36 HO3'        2.2231   -1.2979    2.3952 H         1 ATP         0.2010
     37 H2'         0.0002   -0.0084   -0.0014 H         1 ATP        -0.0393
     38 HO2'       -0.6132    0.5577    2.1063 H         1 ATP         0.2010
     39 H1'         1.7718    1.9211    1.6015 H         1 ATP        -0.0393
     40 H8          0.6089    2.4651   -2.2147 H         1 ATP         0.0000
     41 HN61       -2.5055    5.6680   -1.4503 H         1 ATP         0.2048
     42 HN62       -3.3462    6.4841   -0.1542 H         1 ATP         0.2048
     43 H2         -1.5932    4.4937    3.7066 H         1 ATP        -0.1292
     44 H44        -2.8098    5.8270    2.1160 H         1 ATP         0.2048
@<TRIPOS>BOND
     1    1    2 2
     2    1    3 1
     3    1    4 1
     4    1    8 1
     5    5    6 2
     6    5    7 1
     7    5    8 1
     8    5   12 1
     9    9   10 2
    10    9   11 1
    11    9   12 1
    12    9   13 1
    13   13   14 1
    14   14   15 1
    15   14   32 1
    16   14   33 1
    17   15   16 1
    18   15   17 1
    19   15   34 1
    20   16   21 1
    21   17   18 1
    22   17   19 1
    23   17   35 1
    24   18   36 1
    25   19   20 1
    26   19   21 1
    27   19   37 1
    28   20   38 1
    29   21   22 1
    30   21   39 1
    31   22   23 ar
    32   22   31 ar
    33   23   24 ar
    34   23   40 1
    35   24   25 ar
    36   25   26 ar
    37   25   31 ar
    38   26   27 1
    39   26   28 ar
    40   27   41 1
    41   27   42 1
    42   28   29 ar
    43   28   44 1
    44   29   30 ar
    45   29   43 1
    46   30   31 ar
@<TRIPOS>SUBSTRUCTURE
     1 ATP         1 GROUP 0 A     ****
@<TRIPOS>MOLECULE
[[[5-(6-amino-1,8-dihydropurine-6,8-diylium-7-id-9-yl)-3,4-dihydroxy-tetrahydrofuran-2-yl]methoxy-oxido-phosphoryl]oxy-oxido-phosphoryl] phosphate
   44    46     1     0     0
SMALL
USER_CHARGES

@<TRIPOS>ATOM
      1 PG         -0.4814   -5.0940   -6.3507 P.3       1 ATP        -1.1921
      2 O1G        -0.4389   -4.4725   -7.7427 O.co2     1 ATP         0.3195
      3 O2G         0.4273   -6.3060   -6.1748 O.co2     1 ATP         0.3195
      4 O3G        -1.8878   -5.2795   -5.7905 O.co2     1 ATP         0.3195
      5 PB         -0.2905   -2.4068   -5.0871 P.3       1 ATP        -1.1062
      6 O1B        -0.1136   -1.5993   -6.3537 O.co2     1 ATP         0.3195
      7 O2B        -1.6127   -2.4332   -4.3534 O.co2     1 ATP         0.3195
      8 O3B         0.1831   -3.9440   -5.3731 O.3       1 ATP         0.4672
      9 PA          1.2687   -2.6351   -2.5828 P.3       1 ATP        -1.1062
     10 O1A         1.8046   -4.0313   -2.8128 O.co2     1 ATP         0.3195
     11 O2A         0.1239   -2.3946   -1.6228 O.co2     1 ATP         0.3195
     12 O3A         0.8833   -1.9876   -4.0326 O.3       1 ATP         0.4672
     13 O5'         2.5245   -1.6648   -2.1878 O.3       1 ATP         0.1618
     14 C5'         2.2816   -0.2918   -1.9206 C.3       1 ATP         0.1504
     15 C4'         2.7248    0.0226   -0.4980 C.3       1 ATP         0.1111
     16 O4'         2.4697    1.4219   -0.2462 O.3       1 ATP        -0.1436
     17 C3'         1.9404   -0.7419    0.5596 C.3       1 ATP         0.1111
     18 O3'         2.7418   -0.8086    1.7389 O.3       1 ATP        -0.2728
     19 C2'         0.7477    0.1630    0.7858 C.3       1 ATP         0.1111
     20 O2'         0.1373   -0.0577    2.0407 O.3       1 ATP        -0.2728
     21 C1'         1.3733    1.5427    0.6747 C.3       1 ATP         0.2693
     22 N9          0.4520    2.5240    0.1767 N.pl3     1 ATP        -0.3222
     23 C8          0.1798    2.8712   -1.2933 C.ar      1 ATP         0.1640
     24 N7         -0.7494    3.8400   -1.3610 N.2       1 ATP        -0.1640
     25 C5         -1.0173    4.0603   -0.0358 C.ar      1 ATP         0.0820
     26 C6         -2.0105    5.0717    0.4241 C.ar      1 ATP         0.1640
     27 N6         -2.6723    5.7982   -0.4628 N.pl3     1 ATP        -0.4916
     28 N1         -2.1445    5.1522    1.7502 N.pl3     1 ATP        -0.4390
     29 C2         -1.3755    4.3143    2.6427 C.ar      1 ATP         0.5691
     30 N3         -0.5075    3.4292    2.2616 N.ar      1 ATP        -0.4283
     31 C4         -0.3667    3.3425    0.9070 C.ar      1 ATP         0.2226
     32 H5'1        2.8432    0.3119   -2.6398 H         1 ATP        -0.0393
     33 H5'2        1.2128   -0.0927   -2.0428 H         1 ATP        -0.0393
     34 H4'         3.8040   -0.1399   -0.4044 H         1 ATP        -0.0393
     35 H3'         1.6768   -1.7637    0.2732 H         1 ATP        -0.0393
     36 HO3'        2.2231   -1.2979    2.3952 H         1 ATP         0.2010
     37 H2'         0.0002   -0.0084   -0.0014 H         1 ATP        -0.0393
     38 HO2'       -0.6132    0.5577    2.1063 H         1 ATP         0.2010
     39 H1'         1.7718    1.9211    1.6015 H         1 ATP        -0.0393
     40 H8          0.6089    2.4651   -2.2147 H         1 ATP         0.0000
     41 HN61       -2.5055    5.6680   -1.4503 H         1 ATP         0.2048
     42 HN62       -3.3462    6.4841   -0.1542 H         1 ATP         0.2048
     43 H2         -1.5932    4.4937    3.7066 H         1 ATP        -0.1292
     44 H44        -2.8098    5.8270    2.1160 H         1 ATP         0.2048
@<TRIPOS>BOND
     1    1    2 2
     2    1    3 1
     3    1    4 1
     4    1    8 1
     5    5    6 2
     6    5    7 1
     7    5    8 1
     8    5   12 1
     9    9   10 2
    10    9   11 1
    11    9   12 1
    12    9   13 1
    13   13   14 1
    14   14   15 1
    15   14   32 1
    16   14   33 1
    17   15   16 1
    18   15   17 1
    19   15   34 1
    20   16   21 1
    21   17   18 1
    22   17   19 1
    23   17   35 1
    24   18   36 1
    25   19   20 1
    26   19   21 1
    27   19   37 1
    28   20   38 1
    29   21   22 1
    30   21   39 1
    31   22   23 ar
    32   22   31 ar
    33   23   24 ar
    34   23   40 1
    35   24   25 ar
    36   25   26 ar
    37   25   31 ar
    38   26   27 1
    39   26   28 ar
    40   27   41 1
    41   27   42 1
    42   28   29 ar
    43   28   44 1
    44   29   30 ar
    45   29   43 1
    46   30   31 ar
@<TRIPOS>SUBSTRUCTURE
     1 ATP         1 GROUP 0 A     ****
@<TRIPOS>MOLECULE
[[[5-(6-amino-1,8-dihydropurine-6,8-diylium-7-id-9-yl)-3,4-dihydroxy-tetrahydrofuran-2-yl]methoxy-oxido-phosphoryl]oxy-oxido-phosphoryl] phosphate
   44    46     1     0     0
SMALL
USER_CHARGES

@<TRIPOS>ATOM
      1 PG          2.3939    6.1842   -1.9744 P.3       1 ATP        -1.1921
      2 O1G         3.0269    6.8774   -3.1764 O.co2     1 ATP         0.3195
      3 O2G         0.8736    6.0821   -2.0359 O.co2     1 ATP         0.3195
      4 O3G         2.9362    6.6484   -0.6267 O.co2     1 ATP         0.3195
      5 PB          4.4263    4.0139   -2.0887 P.3       1 ATP        -1.1062
      6 O1B         5.1316    4.4626   -3.3491 O.co2     1 ATP         0.3195
      7 O2B         5.0404    4.2391   -0.7250 O.co2     1 ATP         0.3195
      8 O3B         2.9100    4.6221   -2.0895 O.3       1 ATP         0.4672
      9 PA          3.2351    1.6560   -3.4214 P.3       1 ATP        -1.1062
     10 O1A         4.0724    1.6996   -4.6810 O.co2     1 ATP         0.3195
     11 O2A         1.8026    2.1439   -3.4277 O.co2     1 ATP         0.3195
     12 O3A         4.0492    2.4323   -2.2364 O.3       1 ATP         0.4672
     13 O5'         3.2903    0.1346   -2.8241 O.3       1 ATP         0.1618
     14 C5'         2.2816   -0.2918   -1.9206 C.3       1 ATP         0.1504
     15 C4'         2.7248    0.0226   -0.4980 C.3       1 ATP         0.1111
     16 O4'         2.4697    1.4219   -0.2462 O.3       1 ATP        -0.1436
     17 C3'         1.9404   -0.7419    0.5596 C.3       1 ATP         0.1111
     18 O3'         2.7418   -0.8086    1.7389 O.3       1 ATP        -0.2728
     19 C2'         0.7477    0.1630    0.7858 C.3       1 ATP         0.1111
     20 O2'         0.1373   -0.0577    2.0407 O.3       1 ATP        -0.2728
     21 C1'         1.3733    1.5427    0.6747 C.3       1 ATP         0.2693
     22 N9          0.4520    2.5240    0.1767 N.pl3     1 ATP        -0.3222
     23 C8         -0.3054    2.4845   -1.1576 C.ar      1 ATP         0.1640
     24 N7         -1.0755    3.5806   -1.2691 N.2       1 ATP        -0.1640
     25 C5         -0.8043    4.2306   -0.0942 C.ar      1 ATP         0.0820
     26 C6         -1.4324    5.5335    0.2646 C.ar      1 ATP         0.1640
     27 N6         -2.2885    6.1054   -0.5675 N.pl3     1 ATP        -0.4916
     28 N1         -1.0537    6.0229    1.4478 N.pl3     1 ATP        -0.4390
     29 C2         -0.1096    5.3242    2.2908 C.ar      1 ATP         0.5691
     30 N3          0.4468    4.1904    1.9960 N.ar      1 ATP        -0.4283
     31 C4          0.0631    3.6855    0.7877 C.ar      1 ATP         0.2226
     32 H5'1        1.3514    0.2330   -2.1577 H         1 ATP        -0.0393
     33 H5'2        2.1280   -1.3678   -2.0460 H         1 ATP        -0.0393
     34 H4'         3.8040   -0.1399   -0.4044 H         1 ATP        -0.0393
     35 H3'         1.6768   -1.7637    0.2732 H         1 ATP        -0.0393
     36 HO3'        2.2231   -1.2979    2.3952 H         1 ATP         0.2010
     37 H2'         0.0002   -0.0084   -0.0014 H         1 ATP        -0.0393
     38 HO2'       -0.6132    0.5577    2.1063 H         1 ATP         0.2010
     39 H1'         1.7718    1.9211    1.6015 H         1 ATP        -0.0393
     40 H8         -0.2991    1.7413   -1.9611 H         1 ATP         0.0000
     41 HN61       -2.5167    5.6603   -1.4447 H         1 ATP         0.2048
     42 HN62       -2.7159    6.9882   -0.3270 H         1 ATP         0.2048
     43 H2          0.1059    5.8491    3.2340 H         1 ATP        -0.1292
     44 H44        -1.4532    6.9099    1.7401 H         1 ATP         0.2048
@<TRIPOS>BOND
     1    1    2 2
     2    1    3 1
     3    1    4 1
     4    1    8 1
     5    5    6 2
     6    5    7 1
     7    5    8 1
     8    5   12 1
     9    9   10 2
    10    9   11 1
    11    9   12 1
    12    9   13 1
    13   13   14 1
    14   14   15 1
    15   14   32 1
    16   14   33 1
    17   15   16 1
    18   15   17 1
    19   15   34 1
    20   16   21 1
    21   17   18 1
    22   17   19 1
    23   17   35 1
    24   18   36 1
    25   19   20 1
    26   19   21 1
    27   19   37 1
    28   20   38 1
    29   21   22 1
    30   21   39 1
    31   22   23 ar
    32   22   31 ar
    33   23   24 ar
    34   23   40 1
    35   24   25 ar
    36   25   26 ar
    37   25   31 ar
    38   26   27 1
    39   26   28 ar
    40   27   41 1
    41   27   42 1
    42   28   29 ar
    43   28   44 1
    44   29   30 ar
    45   29   43 1
    46   30   31 ar
@<TRIPOS>SUBSTRUCTURE
     1 ATP         1 GROUP 0 A     ****
@<TRIPOS>MOLECULE
[[[5-(6-amino-1,8-dihydropurine-6,8-diylium-7-id-9-yl)-3,4-dihydroxy-tetrahydrofuran-2-yl]methoxy-oxido-phosphoryl]oxy-oxido-phosphoryl] phosphate
   44    46     1     0     0
SMALL
USER_CHARGES

@<TRIPOS>ATOM
      1 PG          2.1838   -5.1452   -6.3104 P.3       1 ATP        -1.1921
      2 O1G         2.5936   -6.3320   -5.4446 O.co2     1 ATP         0.3195
      3 O2G         0.6788   -5.0027   -6.5107 O.co2     1 ATP         0.3195
      4 O3G         3.0029   -4.9895   -7.5874 O.co2     1 ATP         0.3195
      5 PB          4.0588   -3.3600   -4.8436 P.3       1 ATP        -1.1062
      6 O1B         4.5173   -4.3579   -3.8036 O.co2     1 ATP         0.3195
      7 O2B         4.9412   -2.9871   -6.0139 O.co2     1 ATP         0.3195
      8 O3B         2.5999   -3.8260   -5.4125 O.3       1 ATP         0.4672
      9 PA          4.4792   -0.9077   -3.2423 P.3       1 ATP        -1.1062
     10 O1A         5.4086   -0.2021   -4.2056 O.co2     1 ATP         0.3195
     11 O2A         5.0196   -1.5815   -1.9997 O.co2     1 ATP         0.3195
     12 O3A         3.5930   -1.9917   -4.0845 O.3       1 ATP         0.4672
     13 O5'         3.2903    0.1346   -2.8241 O.3       1 ATP         0.1618
     14 C5'         2.2816   -0.2918   -1.9206 C.3       1 ATP         0.1504
     15 C4'         2.7248    0.0226   -0.4980 C.3       1 ATP         0.1111
     16 O4'         2.4697    1.4219   -0.2462 O.3       1 ATP        -0.1436
     17 C3'         1.9404   -0.7419    0.5596 C.3       1 ATP         0.1111
     18 O3'         2.7418   -0.8086    1.7389 O.3       1 ATP        -0.2728
     19 C2'         0.7477    0.1630    0.7858 C.3       1 ATP         0.1111
     20 O2'         0.1373   -0.0577    2.0407 O.3       1 ATP        -0.2728
     21 C1'         1.3733    1.5427    0.6747 C.3       1 ATP         0.2693
     22 N9          0.4520    2.5240    0.1767 N.pl3     1 ATP        -0.3222
     23 C8          0.1798    2.8712   -1.2933 C.ar      1 ATP         0.1640
     24 N7         -0.7494    3.8400   -1.3610 N.2       1 ATP        -0.1640
     25 C5         -1.0173    4.0603   -0.0358 C.ar      1 ATP         0.0820
     26 C6         -2.0105    5.0717    0.4241 C.ar      1 ATP         0.1640
     27 N6         -2.6723    5.7982   -0.4628 N.pl3     1 ATP        -0.4916
     28 N1         -2.1445    5.1522    1.7502 N.pl3     1 ATP        -0.4390
     29 C2         -1.3755    4.3143    2.6427 C.ar      1 ATP         0.5691
     30 N3         -0.5075    3.4292    2.2616 N.ar      1 ATP        -0.4283
     31 C4         -0.3667    3.3425    0.9070 C.ar      1 ATP         0.2226
     32 H5'1        1.3514    0.2330   -2.1577 H         1 ATP        -0.0393
     33 H5'2        2.1280   -1.3678   -2.0460 H         1 ATP        -0.0393
     34 H4'         3.8040   -0.1399   -0.4044 H         1 ATP        -0.0393
     35 H3'         1.6768   -1.7637    0.2732 H         1 ATP        -0.0393
     36 HO3'        2.2231   -1.2979    2.3952 H         1 ATP         0.2010
     37 H2'         0.0002   -0.0084   -0.0014 H         1 ATP        -0.0393
     38 HO2'       -0.1554   -0.9852    2.0577 H         1 ATP         0.2010
     39 H1'         1.7718    1.9211    1.6015 H         1 ATP        -0.0393
     40 H8          0.6089    2.4651   -2.2147 H         1 ATP         0.0000
     41 HN61       -2.5055    5.6680   -1.4503 H         1 ATP         0.2048
     42 HN62       -3.3462    6.4841   -0.1542 H         1 ATP         0.2048
     43 H2         -1.5932    4.4937    3.7066 H         1 ATP        -0.1292
     44 H44        -2.8098    5.8270    2.1160 H         1 ATP         0.2048
@<TRIPOS>BOND
     1    1    2 2
     2    1    3 1
     3    1    4 1
     4    1    8 1
     5    5    6 2
     6    5    7 1
     7    5    8 1
     8    5   12 1
     9    9   10 2
    10    9   11 1
    11    9   12 1
    12    9   13 1
    13   13   14 1
    14   14   15 1
    15   14   32 1
    16   14   33 1
    17   15   16 1
    18   15   17 1
    19   15   34 1
    20   16   21 1
    21   17   18 1
    22   17   19 1
    23   17   35 1
    24   18   36 1
    25   19   20 1
    26   19   21 1
    27   19   37 1
    28   20   38 1
    29   21   22 1
    30   21   39 1
    31   22   23 ar
    32   22   31 ar
    33   23   24 ar
    34   23   40 1
    35   24   25 ar
    36   25   26 ar
    37   25   31 ar
    38   26   27 1
    39   26   28 ar
    40   27   41 1
    41   27   42 1
    42   28   29 ar
    43   28   44 1
    44   29   30 ar
    45   29   43 1
    46   30   31 ar
@<TRIPOS>SUBSTRUCTURE
     1 ATP         1 GROUP 0 A     ****
@<TRIPOS>MOLECULE
[[[5-(6-amino-1,8-dihydropurine-6,8-diylium-7-id-9-yl)-3,4-dihydroxy-tetrahydrofuran-2-yl]methoxy-oxido-phosphoryl]oxy-oxido-phosphoryl] phosphate
   44    46     1     0     0
SMALL
USER_CHARGES

@<TRIPOS>ATOM
      1 PG          1.4054   -3.8526   -5.4160 P.3       1 ATP        -1.1921
      2 O1G         2.1859   -3.4896   -4.1570 O.co2     1 ATP         0.3195
      3 O2G         0.2893   -4.8676   -5.1934 O.co2     1 ATP         0.3195
      4 O3G         2.2785   -4.1390   -6.6332 O.co2     1 ATP         0.3195
      5 PB          1.2076   -0.9847   -6.1842 P.3       1 ATP        -1.1062
      6 O1B         2.2314   -1.1312   -7.2877 O.co2     1 ATP         0.3195
      7 O2B         0.0541   -0.0146   -6.3098 O.co2     1 ATP         0.3195
      8 O3B         0.6145   -2.4621   -5.8173 O.3       1 ATP         0.4672
      9 PA          2.8629    0.6171   -4.3271 P.3       1 ATP        -1.1062
     10 O1A         1.9237    1.7962   -4.1954 O.co2     1 ATP         0.3195
     11 O2A         4.0968    0.7049   -5.1988 O.co2     1 ATP         0.3195
     12 O3A         1.9898   -0.6867   -4.7825 O.3       1 ATP         0.4672
     13 O5'         3.2903    0.1346   -2.8241 O.3       1 ATP         0.1618
     14 C5'         2.2816   -0.2918   -1.9206 C.3       1 ATP         0.1504
     15 C4'         2.7248    0.0226   -0.4980 C.3       1 ATP         0.1111
     16 O4'         2.4697    1.4219   -0.2462 O.3       1 ATP        -0.1436
     17 C3'         1.9404   -0.7419    0.5596 C.3       1 ATP         0.1111
     18 O3'         2.7418   -0.8086    1.7389 O.3       1 ATP        -0.2728
     19 C2'         0.7477    0.1630    0.7858 C.3       1 ATP         0.1111
     20 O2'         0.1373   -0.0577    2.0407 O.3       1 ATP        -0.2728
     21 C1'         1.3733    1.5427    0.6747 C.3       1 ATP         0.2693
     22 N9          0.4520    2.5240    0.1767 N.pl3     1 ATP        -0.3222
     23 C8          0.5793    3.3338   -1.1209 C.ar      1 ATP         0.1640
     24 N7         -0.4807    4.1508   -1.2458 N.2       1 ATP        -0.1640
     25 C5         -1.1921    3.8572   -0.1126 C.ar      1 ATP         0.0820
     26 C6         -2.4855    4.5203    0.2163 C.ar      1 ATP         0.1640
     27 N6         -2.9873    5.4319   -0.6020 N.pl3     1 ATP        -0.4916
     28 N1         -3.0414    4.1119    1.3596 N.pl3     1 ATP        -0.4390
     29 C2         -2.4169    3.1071    2.1904 C.ar      1 ATP         0.5691
     30 N3         -1.2928    2.5191    1.9210 N.ar      1 ATP        -0.4283
     31 C4         -0.7202    2.9326    0.7534 C.ar      1 ATP         0.2226
     32 H5'1        1.3514    0.2330   -2.1577 H         1 ATP        -0.0393
     33 H5'2        2.1280   -1.3678   -2.0460 H         1 ATP        -0.0393
     34 H4'         3.8040   -0.1399   -0.4044 H         1 ATP        -0.0393
     35 H3'         1.6768   -1.7637    0.2732 H         1 ATP        -0.0393
     36 HO3'        2.2231   -1.2979    2.3952 H         1 ATP         0.2010
     37 H2'         0.0002   -0.0084   -0.0014 H         1 ATP        -0.0393
     38 HO2'       -0.1554   -0.9852    2.0577 H         1 ATP         0.2010
     39 H1'         1.7718    1.9211    1.6015 H         1 ATP        -0.0393
     40 H8          1.3565    3.3309   -1.8916 H         1 ATP         0.0000
     41 HN61       -2.4952    5.6785   -1.4487 H         1 ATP         0.2048
     42 HN62       -3.8637    5.8828   -0.3819 H         1 ATP         0.2048
     43 H2         -2.9911    2.8734    3.1000 H         1 ATP        -0.1292
     44 H44        -3.9253    4.5332    1.6302 H         1 ATP         0.2048
@<TRIPOS>BOND
     1    1    2 2
     2    1    3 1
     3    1    4 1
     4    1    8 1
     5    5    6 2
     6    5    7 1
     7    5    8 1
     8    5   12 1
     9    9   10 2
    10    9   11 1
    11    9   12 1
    12    9   13 1
    13   13   14 1
    14   14   15 1
    15   14   32 1
    16   14   33 1
    17   15   16 1
    18   15   17 1
    19   15   34 1
    20   16   21 1
    21   17   18 1
    22   17   19 1
    23   17   35 1
    24   18   36 1
    25   19   20 1
    26   19   21 1
    27   19   37 1
    28   20   38 1
    29   21   22 1
    30   21   39 1
    31   22   23 ar
    32   22   31 ar
    33   23   24 ar
    34   23   40 1
    35   24   25 ar
    36   25   26 ar
    37   25   31 ar
    38   26   27 1
    39   26   28 ar
    40   27   41 1
    41   27   42 1
    42   28   29 ar
    43   28   44 1
    44   29   30 ar
    45   29   43 1
    46   30   31 ar
@<TRIPOS>SUBSTRUCTURE
     1 ATP         1 GROUP 0 A     ****
@<TRIPOS>MOLECULE
[[[5-(6-amino-1,8-dihydropurine-6,8-diylium-7-id-9-yl)-3,4-dihydroxy-tetrahydrofuran-2-yl]methoxy-oxido-phosphoryl]oxy-oxido-phosphoryl] phosphate
   44    46     1     0     0
SMALL
USER_CHARGES

@<TRIPOS>ATOM
      1 PG          7.9631   -3.7145   -4.0381 P.3       1 ATP        -1.1921
      2 O1G         7.4496   -4.6791   -5.1019 O.co2     1 ATP         0.3195
      3 O2G         8.8767   -2.6168   -4.5727 O.co2     1 ATP         0.3195
      4 O3G         8.4749   -4.3934   -2.7719 O.co2     1 ATP         0.3195
      5 PB          5.2408   -3.4814   -2.8596 P.3       1 ATP        -1.1062
      6 O1B         4.5042   -4.3153   -3.8841 O.co2     1 ATP         0.3195
      7 O2B         5.5654   -4.0316   -1.4888 O.co2     1 ATP         0.3195
      8 O3B         6.6140   -2.9100   -3.5356 O.3       1 ATP         0.4672
      9 PA          4.0014   -0.9657   -3.8031 P.3       1 ATP        -1.1062
     10 O1A         2.9295   -1.5891   -4.6702 O.co2     1 ATP         0.3195
     11 O2A         5.2431   -0.3619   -4.4226 O.co2     1 ATP         0.3195
     12 O3A         4.4548   -2.0618   -2.6794 O.3       1 ATP         0.4672
     13 O5'         3.2903    0.1346   -2.8241 O.3       1 ATP         0.1618
     14 C5'         2.2816   -0.2918   -1.9206 C.3       1 ATP         0.1504
     15 C4'         2.7248    0.0226   -0.4980 C.3       1 ATP         0.1111
     16 O4'         2.4697    1.4219   -0.2462 O.3       1 ATP        -0.1436
     17 C3'         1.9404   -0.7419    0.5596 C.3       1 ATP         0.1111
     18 O3'         2.7418   -0.8086    1.7389 O.3       1 ATP        -0.2728
     19 C2'         0.7477    0.1630    0.7858 C.3       1 ATP         0.1111
     20 O2'         0.1373   -0.0577    2.0407 O.3       1 ATP        -0.2728
     21 C1'         1.3733    1.5427    0.6747 C.3       1 ATP         0.2693
     22 N9          0.4520    2.5240    0.1767 N.pl3     1 ATP        -0.3222
     23 C8          0.1798    2.8712   -1.2933 C.ar      1 ATP         0.1640
     24 N7         -0.7494    3.8400   -1.3610 N.2       1 ATP        -0.1640
     25 C5         -1.0173    4.0603   -0.0358 C.ar      1 ATP         0.0820
     26 C6         -2.0105    5.0717    0.4241 C.ar      1 ATP         0.1640
     27 N6         -2.6723    5.7982   -0.4628 N.pl3     1 ATP        -0.4916
     28 N1         -2.1445    5.1522    1.7502 N.pl3     1 ATP        -0.4390
     29 C2         -1.3755    4.3143    2.6427 C.ar      1 ATP         0.5691
     30 N3         -0.5075    3.4292    2.2616 N.ar      1 ATP        -0.4283
     31 C4         -0.3667    3.3425    0.9070 C.ar      1 ATP         0.2226
     32 H5'1        1.3514    0.2330   -2.1577 H         1 ATP        -0.0393
     33 H5'2        2.1280   -1.3678   -2.0460 H         1 ATP        -0.0393
     34 H4'         3.8040   -0.1399   -0.4044 H         1 ATP        -0.0393
     35 H3'         1.6768   -1.7637    0.2732 H         1 ATP        -0.0393
     36 HO3'        2.2231   -1.2979    2.3952 H         1 ATP         0.2010
     37 H2'         0.0002   -0.0084   -0.0014 H         1 ATP        -0.0393
     38 HO2'       -0.6132    0.5577    2.1063 H         1 ATP         0.2010
     39 H1'         1.7718    1.9211    1.6015 H         1 ATP        -0.0393
     40 H8          0.6089    2.4651   -2.2147 H         1 ATP         0.0000
     41 HN61       -2.5055    5.6680   -1.4503 H         1 ATP         0.2048
     42 HN62       -3.3462    6.4841   -0.1542 H         1 ATP         0.2048
     43 H2         -1.5932    4.4937    3.7066 H         1 ATP        -0.1292
     44 H44        -2.8098    5.8270    2.1160 H         1 ATP         0.2048
@<TRIPOS>BOND
     1    1    2 2
     2    1    3 1
     3    1    4 1
     4    1    8 1
     5    5    6 2
     6    5    7 1
     7    5    8 1
     8    5   12 1
     9    9   10 2
    10    9   11 1
    11    9   12 1
    12    9   13 1
    13   13   14 1
    14   14   15 1
    15   14   32 1
    16   14   33 1
    17   15   16 1
    18   15   17 1
    19   15   34 1
    20   16   21 1
    21   17   18 1
    22   17   19 1
    23   17   35 1
    24   18   36 1
    25   19   20 1
    26   19   21 1
    27   19   37 1
    28   20   38 1
    29   21   22 1
    30   21   39 1
    31   22   23 ar
    32   22   31 ar
    33   23   24 ar
    34   23   40 1
    35   24   25 ar
    36   25   26 ar
    37   25   31 ar
    38   26   27 1
    39   26   28 ar
    40   27   41 1
    41   27   42 1
    42   28   29 ar
    43   28   44 1
    44   29   30 ar
    45   29   43 1
    46   30   31 ar
@<TRIPOS>SUBSTRUCTURE
     1 ATP         1 GROUP 0 A     ****
@<TRIPOS>MOLECULE
[[[5-(6-amino-1,8-dihydropurine-6,8-diylium-7-id-9-yl)-3,4-dihydroxy-tetrahydrofuran-2-yl]methoxy-oxido-phosphoryl]oxy-oxido-phosphoryl] phosphate
   44    46     1     0     0
SMALL
USER_CHARGES

@<TRIPOS>ATOM
      1 PG          5.3538   -5.6507   -3.4545 P.3       1 ATP        -1.1921
      2 O1G         6.5585   -5.5697   -4.3860 O.co2     1 ATP         0.3195
      3 O2G         5.7085   -5.8046   -1.9793 O.co2     1 ATP         0.3195
      4 O3G         4.2528   -6.5903   -3.9350 O.co2     1 ATP         0.3195
      5 PB          4.0588   -3.3600   -4.8436 P.3       1 ATP        -1.1062
      6 O1B         5.1931   -3.0274   -5.7871 O.co2     1 ATP         0.3195
      7 O2B         2.8248   -4.0879   -5.3282 O.co2     1 ATP         0.3195
      8 O3B         4.6652   -4.1553   -3.5518 O.3       1 ATP         0.4672
      9 PA          4.4792   -0.9077   -3.2423 P.3       1 ATP        -1.1062
     10 O1A         5.4086   -0.2021   -4.2056 O.co2     1 ATP         0.3195
     11 O2A         5.0196   -1.5815   -1.9997 O.co2     1 ATP         0.3195
     12 O3A         3.5930   -1.9917   -4.0845 O.3       1 ATP         0.4672
     13 O5'         3.2903    0.1346   -2.8241 O.3       1 ATP         0.1618
     14 C5'         2.2816   -0.2918   -1.9206 C.3       1 ATP         0.1504
     15 C4'         2.7248    0.0226   -0.4980 C.3       1 ATP         0.1111
     16 O4'         2.4697    1.4219   -0.2462 O.3       1 ATP        -0.1436
     17 C3'         1.9404   -0.7419    0.5596 C.3       1 ATP         0.1111
     18 O3'         2.7418   -0.8086    1.7389 O.3       1 ATP        -0.2728
     19 C2'         0.7477    0.1630    0.7858 C.3       1 ATP         0.1111
     20 O2'         0.1373   -0.0577    2.0407 O.3       1 ATP        -0.2728
     21 C1'         1.3733    1.5427    0.6747 C.3       1 ATP         0.2693
     22 N9          0.4520    2.5240    0.1767 N.pl3     1 ATP        -0.3222
     23 C8          0.1798    2.8712   -1.2933 C.ar      1 ATP         0.1640
     24 N7         -0.7494    3.8400   -1.3610 N.2       1 ATP        -0.1640
     25 C5         -1.0173    4.0603   -0.0358 C.ar      1 ATP         0.0820
     26 C6         -2.0105    5.0717    0.4241 C.ar      1 ATP         0.1640
     27 N6         -2.6723    5.7982   -0.4628 N.pl3     1 ATP        -0.4916
     28 N1         -2.1445    5.1522    1.7502 N.pl3     1 ATP        -0.4390
     29 C2         -1.3755    4.3143    2.6427 C.ar      1 ATP         0.5691
     30 N3         -0.5075    3.4292    2.2616 N.ar      1 ATP        -0.4283
     31 C4         -0.3667    3.3425    0.9070 C.ar      1 ATP         0.2226
     32 H5'1        1.3514    0.2330   -2.1577 H         1 ATP        -0.0393
     33 H5'2        2.1280   -1.3678   -2.0460 H         1 ATP        -0.0393
     34 H4'         3.8040   -0.1399   -0.4044 H         1 ATP        -0.0393
     35 H3'         1.6768   -1.7637    0.2732 H         1 ATP        -0.0393
     36 HO3'        2.2231   -1.2979    2.3952 H         1 ATP         0.2010
     37 H2'         0.0002   -0.0084   -0.0014 H         1 ATP        -0.0393
     38 HO2'       -0.6132    0.5577    2.1063 H         1 ATP         0.2010
     39 H1'         1.7718    1.9211    1.6015 H         1 ATP        -0.0393
     40 H8          0.6089    2.4651   -2.2147 H         1 ATP         0.0000
     41 HN61       -2.5055    5.6680   -1.4503 H         1 ATP         0.2048
     42 HN62       -3.3462    6.4841   -0.1542 H         1 ATP         0.2048
     43 H2         -1.5932    4.4937    3.7066 H         1 ATP        -0.1292
     44 H44        -2.8098    5.8270    2.1160 H         1 ATP         0.2048
@<TRIPOS>BOND
     1    1    2 2
     2    1    3 1
     3    1    4 1
     4    1    8 1
     5    5    6 2
     6    5    7 1
     7    5    8 1
     8    5   12 1
     9    9   10 2
    10    9   11 1
    11    9   12 1
    12    9   13 1
    13   13   14 1
    14   14   15 1
    15   14   32 1
    16   14   33 1
    17   15   16 1
    18   15   17 1
    19   15   34 1
    20   16   21 1
    21   17   18 1
    22   17   19 1
    23   17   35 1
    24   18   36 1
    25   19   20 1
    26   19   21 1
    27   19   37 1
    28   20   38 1
    29   21   22 1
    30   21   39 1
    31   22   23 ar
    32   22   31 ar
    33   23   24 ar
    34   23   40 1
    35   24   25 ar
    36   25   26 ar
    37   25   31 ar
    38   26   27 1
    39   26   28 ar
    40   27   41 1
    41   27   42 1
    42   28   29 ar
    43   28   44 1
    44   29   30 ar
    45   29   43 1
    46   30   31 ar
@<TRIPOS>SUBSTRUCTURE
     1 ATP         1 GROUP 0 A     ****
@<TRIPOS>MOLECULE
[[[5-(6-amino-1,8-dihydropurine-6,8-diylium-7-id-9-yl)-3,4-dihydroxy-tetrahydrofuran-2-yl]methoxy-oxido-phosphoryl]oxy-oxido-phosphoryl] phosphate
   44    46     1     0     0
SMALL
USER_CHARGES

@<TRIPOS>ATOM
      1 PG         -0.5140    2.5161   -6.3499 P.3       1 ATP        -1.1921
      2 O1G        -0.3302    1.0183   -6.5706 O.co2     1 ATP         0.3195
      3 O2G        -1.9621    2.9488   -6.1460 O.co2     1 ATP         0.3195
      4 O3G         0.2707    3.3929   -7.3201 O.co2     1 ATP         0.3195
      5 PB          1.7480    2.5626   -4.4172 P.3       1 ATP        -1.1062
      6 O1B         2.6714    3.2500   -5.3981 O.co2     1 ATP         0.3195
      7 O2B         1.8465    2.8272   -2.9314 O.co2     1 ATP         0.3195
      8 O3B         0.2033    2.8018   -4.8926 O.3       1 ATP         0.4672
      9 PA          3.0683   -0.0853   -4.4294 P.3       1 ATP        -1.1062
     10 O1A         4.2833    0.4538   -5.1525 O.co2     1 ATP         0.3195
     11 O2A         2.5798   -1.4950   -4.6828 O.co2     1 ATP         0.3195
     12 O3A         1.8276    0.9511   -4.6666 O.3       1 ATP         0.4672
     13 O5'         3.2903    0.1346   -2.8241 O.3       1 ATP         0.1618
     14 C5'         2.2816   -0.2918   -1.9206 C.3       1 ATP         0.1504
     15 C4'         2.7248    0.0226   -0.4980 C.3       1 ATP         0.1111
     16 O4'         2.4697    1.4219   -0.2462 O.3       1 ATP        -0.1436
     17 C3'         1.9404   -0.7419    0.5596 C.3       1 ATP         0.1111
     18 O3'         2.7418   -0.8086    1.7389 O.3       1 ATP        -0.2728
     19 C2'         0.7477    0.1630    0.7858 C.3       1 ATP         0.1111
     20 O2'         0.1373   -0.0577    2.0407 O.3       1 ATP        -0.2728
     21 C1'         1.3733    1.5427    0.6747 C.3       1 ATP         0.2693
     22 N9          0.4520    2.5240    0.1767 N.pl3     1 ATP        -0.3222
     23 C8         -1.0247    2.3053   -0.1800 C.ar      1 ATP         0.1640
     24 N7         -1.5580    3.4612   -0.6116 N.2       1 ATP        -0.1640
     25 C5         -0.4873    4.3110   -0.5222 C.ar      1 ATP         0.0820
     26 C6         -0.5728    5.7505   -0.8981 C.ar      1 ATP         0.1640
     27 N6         -1.7163    6.2514   -1.3385 N.pl3     1 ATP        -0.4916
     28 N1          0.5667    6.4301   -0.7475 N.pl3     1 ATP        -0.4390
     29 C2          1.7697    5.7952   -0.2579 C.ar      1 ATP         0.5691
     30 N3          1.8633    4.5450    0.0742 N.ar      1 ATP        -0.4283
     31 C4          0.7014    3.8457   -0.0776 C.ar      1 ATP         0.2226
     32 H5'1        1.3514    0.2330   -2.1577 H         1 ATP        -0.0393
     33 H5'2        2.1280   -1.3678   -2.0460 H         1 ATP        -0.0393
     34 H4'         3.8040   -0.1399   -0.4044 H         1 ATP        -0.0393
     35 H3'         1.6768   -1.7637    0.2732 H         1 ATP        -0.0393
     36 HO3'        2.2231   -1.2979    2.3952 H         1 ATP         0.2010
     37 H2'         0.0002   -0.0084   -0.0014 H         1 ATP        -0.0393
     38 HO2'       -0.1554   -0.9852    2.0577 H         1 ATP         0.2010
     39 H1'         1.7718    1.9211    1.6015 H         1 ATP        -0.0393
     40 H8         -1.6458    1.4054   -0.1318 H         1 ATP         0.0000
     41 HN61       -2.5307    5.6598   -1.4199 H         1 ATP         0.2048
     42 HN62       -1.7773    7.2266   -1.5938 H         1 ATP         0.2048
     43 H2          2.6279    6.4808   -0.1872 H         1 ATP        -0.1292
     44 H44         0.5621    7.4166   -0.9900 H         1 ATP         0.2048
@<TRIPOS>BOND
     1    1    2 2
     2    1    3 1
     3    1    4 1
     4    1    8 1
     5    5    6 2
     6    5    7 1
     7    5    8 1
     8    5   12 1
     9    9   10 2
    10    9   11 1
    11    9   12 1
    12    9   13 1
    13   13   14 1
    14   14   15 1
    15   14   32 1
    16   14   33 1
    17   15   16 1
    18   15   17 1
    19   15   34 1
    20   16   21 1
    21   17   18 1
    22   17   19 1
    23   17   35 1
    24   18   36 1
    25   19   20 1
    26   19   21 1
    27   19   37 1
    28   20   38 1
    29   21   22 1
    30   21   39 1
    31   22   23 ar
    32   22   31 ar
    33   23   24 ar
    34   23   40 1
    35   24   25 ar
    36   25   26 ar
    37   25   31 ar
    38   26   27 1
    39   26   28 ar
    40   27   41 1
    41   27   42 1
    42   28   29 ar
    43   28   44 1
    44   29   30 ar
    45   29   43 1
    46   30   31 ar
@<TRIPOS>SUBSTRUCTURE
     1 ATP         1 GROUP 0 A     ****
@<TRIPOS>MOLECULE
[[[5-(6-amino-1,8-dihydropurine-6,8-diylium-7-id-9-yl)-3,4-dihydroxy-tetrahydrofuran-2-yl]methoxy-oxido-phosphoryl]oxy-oxido-phosphoryl] phosphate
   44    46     1     0     0
SMALL
USER_CHARGES

@<TRIPOS>ATOM
      1 PG          2.5625   -1.0947   -8.8311 P.3       1 ATP        -1.1921
      2 O1G         1.6451   -0.0054   -9.3765 O.co2     1 ATP         0.3195
      3 O2G         4.0377   -0.9001   -9.1650 O.co2     1 ATP         0.3195
      4 O3G         2.0518   -2.5140   -9.0559 O.co2     1 ATP         0.3195
      5 PB          1.2076   -0.9847   -6.1842 P.3       1 ATP        -1.1062
      6 O1B         0.2826    0.1753   -6.4779 O.co2     1 ATP         0.3195
      7 O2B         0.6957   -2.4076   -6.1590 O.co2     1 ATP         0.3195
      8 O3B         2.4889   -0.9045   -7.1945 O.3       1 ATP         0.4672
      9 PA          2.8629    0.6171   -4.3271 P.3       1 ATP        -1.1062
     10 O1A         1.9237    1.7962   -4.1954 O.co2     1 ATP         0.3195
     11 O2A         4.0968    0.7049   -5.1988 O.co2     1 ATP         0.3195
     12 O3A         1.9898   -0.6867   -4.7825 O.3       1 ATP         0.4672
     13 O5'         3.2903    0.1346   -2.8241 O.3       1 ATP         0.1618
     14 C5'         2.2816   -0.2918   -1.9206 C.3       1 ATP         0.1504
     15 C4'         2.7248    0.0226   -0.4980 C.3       1 ATP         0.1111
     16 O4'         2.4697    1.4219   -0.2462 O.3       1 ATP        -0.1436
     17 C3'         1.9404   -0.7419    0.5596 C.3       1 ATP         0.1111
     18 O3'         2.7418   -0.8086    1.7389 O.3       1 ATP        -0.2728
     19 C2'         0.7477    0.1630    0.7858 C.3       1 ATP         0.1111
     20 O2'         0.1373   -0.0577    2.0407 O.3       1 ATP        -0.2728
     21 C1'         1.3733    1.5427    0.6747 C.3       1 ATP         0.2693
     22 N9          0.4520    2.5240    0.1767 N.pl3     1 ATP        -0.3222
     23 C8          0.5793    3.3338   -1.1209 C.ar      1 ATP         0.1640
     24 N7         -0.4807    4.1508   -1.2458 N.2       1 ATP        -0.1640
     25 C5         -1.1921    3.8572   -0.1126 C.ar      1 ATP         0.0820
     26 C6         -2.4855    4.5203    0.2163 C.ar      1 ATP         0.1640
     27 N6         -2.9873    5.4319   -0.6020 N.pl3     1 ATP        -0.4916
     28 N1         -3.0414    4.1119    1.3596 N.pl3     1 ATP        -0.4390
     29 C2         -2.4169    3.1071    2.1904 C.ar      1 ATP         0.5691
     30 N3         -1.2928    2.5191    1.9210 N.ar      1 ATP        -0.4283
     31 C4         -0.7202    2.9326    0.7534 C.ar      1 ATP         0.2226
     32 H5'1        1.3514    0.2330   -2.1577 H         1 ATP        -0.0393
     33 H5'2        2.1280   -1.3678   -2.0460 H         1 ATP        -0.0393
     34 H4'         3.8040   -0.1399   -0.4044 H         1 ATP        -0.0393
     35 H3'         1.6768   -1.7637    0.2732 H         1 ATP        -0.0393
     36 HO3'        2.2231   -1.2979    2.3952 H         1 ATP         0.2010
     37 H2'         0.0002   -0.0084   -0.0014 H         1 ATP        -0.0393
     38 HO2'       -0.1554   -0.9852    2.0577 H         1 ATP         0.2010
     39 H1'         1.7718    1.9211    1.6015 H         1 ATP        -0.0393
     40 H8          1.3565    3.3309   -1.8916 H         1 ATP         0.0000
     41 HN61       -2.4952    5.6785   -1.4487 H         1 ATP         0.2048
     42 HN62       -3.8637    5.8828   -0.3819 H         1 ATP         0.2048
     43 H2         -2.9911    2.8734    3.1000 H         1 ATP        -0.1292
     44 H44        -3.9253    4.5332    1.6302 H         1 ATP         0.2048
@<TRIPOS>BOND
     1    1    2 2
     2    1    3 1
     3    1    4 1
     4    1    8 1
     5    5    6 2
     6    5    7 1
     7    5    8 1
     8    5   12 1
     9    9   10 2
    10    9   11 1
    11    9   12 1
    12    9   13 1
    13   13   14 1
    14   14   15 1
    15   14   32 1
    16   14   33 1
    17   15   16 1
    18   15   17 1
    19   15   34 1
    20   16   21 1
    21   17   18 1
    22   17   19 1
    23   17   35 1
    24   18   36 1
    25   19   20 1
    26   19   21 1
    27   19   37 1
    28   20   38 1
    29   21   22 1
    30   21   39 1
    31   22   23 ar
    32   22   31 ar
    33   23   24 ar
    34   23   40 1
    35   24   25 ar
    36   25   26 ar
    37   25   31 ar
    38   26   27 1
    39   26   28 ar
    40   27   41 1
    41   27   42 1
    42   28   29 ar
    43   28   44 1
    44   29   30 ar
    45   29   43 1
    46   30   31 ar
@<TRIPOS>SUBSTRUCTURE
     1 ATP         1 GROUP 0 A     ****
@<TRIPOS>MOLECULE
[[[5-(6-amino-1,8-dihydropurine-6,8-diylium-7-id-9-yl)-3,4-dihydroxy-tetrahydrofuran-2-yl]methoxy-oxido-phosphoryl]oxy-oxido-phosphoryl] phosphate
   44    46     1     0     0
SMALL
USER_CHARGES

@<TRIPOS>ATOM
      1 PG          3.4187   -4.6650   -5.9101 P.3       1 ATP        -1.1921
      2 O1G         4.6206   -4.5617   -6.8431 O.co2     1 ATP         0.3195
      3 O2G         2.9900   -6.0935   -5.5923 O.co2     1 ATP         0.3195
      4 O3G         2.2673   -3.7305   -6.2665 O.co2     1 ATP         0.3195
      5 PB          4.5795   -2.6078   -4.1006 P.3       1 ATP        -1.1062
      6 O1B         4.7789   -2.5268   -2.6035 O.co2     1 ATP         0.3195
      7 O2B         5.7059   -2.2913   -5.0589 O.co2     1 ATP         0.3195
      8 O3B         3.9711   -4.0780   -4.4713 O.3       1 ATP         0.4672
      9 PA          3.0683   -0.0853   -4.4294 P.3       1 ATP        -1.1062
     10 O1A         1.6217    0.2192   -4.7522 O.co2     1 ATP         0.3195
     11 O2A         4.1890    0.5887   -5.1908 O.co2     1 ATP         0.3195
     12 O3A         3.2815   -1.7036   -4.5041 O.3       1 ATP         0.4672
     13 O5'         3.2903    0.1346   -2.8241 O.3       1 ATP         0.1618
     14 C5'         2.2816   -0.2918   -1.9206 C.3       1 ATP         0.1504
     15 C4'         2.7248    0.0226   -0.4980 C.3       1 ATP         0.1111
     16 O4'         2.4697    1.4219   -0.2462 O.3       1 ATP        -0.1436
     17 C3'         1.9404   -0.7419    0.5596 C.3       1 ATP         0.1111
     18 O3'         2.7418   -0.8086    1.7389 O.3       1 ATP        -0.2728
     19 C2'         0.7477    0.1630    0.7858 C.3       1 ATP         0.1111
     20 O2'         0.1373   -0.0577    2.0407 O.3       1 ATP        -0.2728
     21 C1'         1.3733    1.5427    0.6747 C.3       1 ATP         0.2693
     22 N9          0.4520    2.5240    0.1767 N.pl3     1 ATP        -0.3222
     23 C8         -0.3054    2.4845   -1.1576 C.ar      1 ATP         0.1640
     24 N7         -1.0755    3.5806   -1.2691 N.2       1 ATP        -0.1640
     25 C5         -0.8043    4.2306   -0.0942 C.ar      1 ATP         0.0820
     26 C6         -1.4324    5.5335    0.2646 C.ar      1 ATP         0.1640
     27 N6         -2.2885    6.1054   -0.5675 N.pl3     1 ATP        -0.4916
     28 N1         -1.0537    6.0229    1.4478 N.pl3     1 ATP        -0.4390
     29 C2         -0.1096    5.3242    2.2908 C.ar      1 ATP         0.5691
     30 N3          0.4468    4.1904    1.9960 N.ar      1 ATP        -0.4283
     31 C4          0.0631    3.6855    0.7877 C.ar      1 ATP         0.2226
     32 H5'1        1.3514    0.2330   -2.1577 H         1 ATP        -0.0393
     33 H5'2        2.1280   -1.3678   -2.0460 H         1 ATP        -0.0393
     34 H4'         3.8040   -0.1399   -0.4044 H         1 ATP        -0.0393
     35 H3'         1.6768   -1.7637    0.2732 H         1 ATP        -0.0393
     36 HO3'        3.5553   -1.2733    1.4913 H         1 ATP         0.2010
     37 H2'         0.0002   -0.0084   -0.0014 H         1 ATP        -0.0393
     38 HO2'       -0.1554   -0.9852    2.0577 H         1 ATP         0.2010
     39 H1'         1.7718    1.9211    1.6015 H         1 ATP        -0.0393
     40 H8         -0.2991    1.7413   -1.9611 H         1 ATP         0.0000
     41 HN61       -2.5167    5.6603   -1.4447 H         1 ATP         0.2048
     42 HN62       -2.7159    6.9882   -0.3270 H         1 ATP         0.2048
     43 H2          0.1059    5.8491    3.2340 H         1 ATP        -0.1292
     44 H44        -1.4532    6.9099    1.7401 H         1 ATP         0.2048
@<TRIPOS>BOND
     1    1    2 2
     2    1    3 1
     3    1    4 1
     4    1    8 1
     5    5    6 2
     6    5    7 1
     7    5    8 1
     8    5   12 1
     9    9   10 2
    10    9   11 1
    11    9   12 1
    12    9   13 1
    13   13   14 1
    14   14   15 1
    15   14   32 1
    16   14   33 1
    17   15   16 1
    18   15   17 1
    19   15   34 1
    20   16   21 1
    21   17   18 1
    22   17   19 1
    23   17   35 1
    24   18   36 1
    25   19   20 1
    26   19   21 1
    27   19   37 1
    28   20   38 1
    29   21   22 1
    30   21   39 1
    31   22   23 ar
    32   22   31 ar
    33   23   24 ar
    34   23   40 1
    35   24   25 ar
    36   25   26 ar
    37   25   31 ar
    38   26   27 1
    39   26   28 ar
    40   27   41 1
    41   27   42 1
    42   28   29 ar
    43   28   44 1
    44   29   30 ar
    45   29   43 1
    46   30   31 ar
@<TRIPOS>SUBSTRUCTURE
     1 ATP         1 GROUP 0 A     ****
@<TRIPOS>MOLECULE
[[[5-(6-amino-1,8-dihydropurine-6,8-diylium-7-id-9-yl)-3,4-dihydroxy-tetrahydrofuran-2-yl]methoxy-oxido-phosphoryl]oxy-oxido-phosphoryl] phosphate
   44    46     1     0     0
SMALL
USER_CHARGES

@<TRIPOS>ATOM
      1 PG         -6.4278   -7.9683    0.8518 P.3       1 ATP        -1.1921
      2 O1G        -7.2772   -7.2052   -0.1592 O.co2     1 ATP         0.3195
      3 O2G        -5.8155   -9.2570    0.3135 O.co2     1 ATP         0.3195
      4 O3G        -7.0676   -8.1069    2.2293 O.co2     1 ATP         0.3195
      5 PB         -5.0735   -5.4551    1.6908 P.3       1 ATP        -1.1062
      6 O1B        -5.7166   -4.5312    0.6806 O.co2     1 ATP         0.3195
      7 O2B        -5.5131   -5.4611    3.1378 O.co2     1 ATP         0.3195
      8 O3B        -5.1316   -6.9837    1.1171 O.3       1 ATP         0.4672
      9 PA         -2.2649   -6.0688    2.3909 P.3       1 ATP        -1.1062
     10 O1A        -2.2218   -7.4684    1.8173 O.co2     1 ATP         0.3195
     11 O2A        -2.3876   -5.8479    3.8829 O.co2     1 ATP         0.3195
     12 O3A        -3.4558   -5.2416    1.6377 O.3       1 ATP         0.4672
     13 O5'        -0.9724   -5.2440    1.8220 O.3       1 ATP         0.1618
     14 C5'        -0.7840   -3.8935    2.2172 C.3       1 ATP         0.1504
     15 C4'        -0.0724   -3.1466    1.1027 C.3       1 ATP         0.1111
     16 O4'        -0.8674   -3.1929   -0.0945 O.3       1 ATP        -0.1436
     17 C3'         0.1338   -1.6715    1.4027 C.3       1 ATP         0.1111
     18 O3'         1.2893   -1.4445    2.1808 O.3       1 ATP        -0.2728
     19 C2'         0.2158   -1.0724    0.0128 C.3       1 ATP         0.1111
     20 O2'         1.5141   -1.2448   -0.5513 O.3       1 ATP        -0.2728
     21 C1'        -0.7897   -1.9176   -0.7583 C.3       1 ATP         0.2693
     22 N9         -2.1040   -1.3333   -0.7704 N.pl3     1 ATP        -0.3222
     23 C8         -3.2124   -1.5345    0.2719 C.ar      1 ATP         0.1640
     24 N7         -4.2964   -0.8234   -0.0828 N.2       1 ATP        -0.1640
     25 C5         -3.8754   -0.2386   -1.2478 C.ar      1 ATP         0.0820
     26 C6         -4.7432    0.6719   -2.0470 C.ar      1 ATP         0.1640
     27 N6         -5.9725    0.9415   -1.6366 N.pl3     1 ATP        -0.4916
     28 N1         -4.1703    1.1517   -3.1536 N.pl3     1 ATP        -0.4390
     29 C2         -2.8174    0.7994   -3.5215 C.ar      1 ATP         0.5691
     30 N3         -2.0475    0.0097   -2.8393 N.ar      1 ATP        -0.4283
     31 C4         -2.6278   -0.4836   -1.7071 C.ar      1 ATP         0.2226
     32 H5'1       -1.7618   -3.4448    2.4164 H         1 ATP        -0.0393
     33 H5'2       -0.1874   -3.8744    3.1341 H         1 ATP        -0.0393
     34 H4'         0.8871   -3.6466    0.8809 H         1 ATP        -0.0393
     35 H3'        -0.7370   -1.2334    1.9869 H         1 ATP        -0.0393
     36 HO3'        1.3407   -0.4871    2.3218 H         1 ATP         0.2010
     37 H2'        -0.0343   -0.0280    0.0196 H         1 ATP        -0.0393
     38 HO2'        2.1443   -0.7955    0.0378 H         1 ATP         0.2010
     39 H1'        -0.5175   -2.1046   -1.7826 H         1 ATP        -0.0393
     40 H8         -3.2310   -2.1319    1.1889 H         1 ATP         0.0000
     41 HN61       -6.3231    0.5316   -0.7829 H         1 ATP         0.2048
     42 HN62       -6.5628    1.5584   -2.1760 H         1 ATP         0.2048
     43 H2         -2.4822    1.2710   -4.4579 H         1 ATP        -0.1292
     44 H44        -4.7200    1.7780   -3.7346 H         1 ATP         0.2048
@<TRIPOS>BOND
     1    1    2 2
     2    1    3 1
     3    1    4 1
     4    1    8 1
     5    5    6 2
     6    5    7 1
     7    5    8 1
     8    5   12 1
     9    9   10 2
    10    9   11 1
    11    9   12 1
    12    9   13 1
    13   13   14 1
    14   14   15 1
    15   14   32 1
    16   14   33 1
    17   15   16 1
    18   15   17 1
    19   15   34 1
    20   16   21 1
    21   17   18 1
    22   17   19 1
    23   17   35 1
    24   18   36 1
    25   19   20 1
    26   19   21 1
    27   19   37 1
    28   20   38 1
    29   21   22 1
    30   21   39 1
    31   22   23 ar
    32   22   31 ar
    33   23   24 ar
    34   23   40 1
    35   24   25 ar
    36   25   26 ar
    37   25   31 ar
    38   26   27 1
    39   26   28 ar
    40   27   41 1
    41   27   42 1
    42   28   29 ar
    43   28   44 1
    44   29   30 ar
    45   29   43 1
    46   30   31 ar
@<TRIPOS>SUBSTRUCTURE
     1 ATP         1 GROUP 0 A     ****
@<TRIPOS>MOLECULE
[[[5-(6-amino-1,8-dihydropurine-6,8-diylium-7-id-9-yl)-3,4-dihydroxy-tetrahydrofuran-2-yl]methoxy-oxido-phosphoryl]oxy-oxido-phosphoryl] phosphate
   44    46     1     0     0
SMALL
USER_CHARGES

@<TRIPOS>ATOM
      1 PG          0.7806    0.2265   -6.6421 P.3       1 ATP        -1.1921
      2 O1G         2.1394    0.7270   -6.1635 O.co2     1 ATP         0.3195
      3 O2G         0.5341    0.4077   -8.1361 O.co2     1 ATP         0.3195
      4 O3G        -0.3888    0.6490   -5.7589 O.co2     1 ATP         0.3195
      5 PB          1.0991   -2.2887   -5.0845 P.3       1 ATP        -1.1062
      6 O1B         0.0974   -1.8563   -4.0370 O.co2     1 ATP         0.3195
      7 O2B         1.2507   -3.7433   -5.4698 O.co2     1 ATP         0.3195
      8 O3B         0.8566   -1.4084   -6.4392 O.3       1 ATP         0.4672
      9 PA          3.5298   -2.0738   -3.4112 P.3       1 ATP        -1.1062
     10 O1A         4.6986   -1.1128   -3.4034 O.co2     1 ATP         0.3195
     11 O2A         3.7585   -3.5697   -3.3978 O.co2     1 ATP         0.3195
     12 O3A         2.5668   -1.7010   -4.6774 O.3       1 ATP         0.4672
     13 O5'         2.5245   -1.6648   -2.1878 O.3       1 ATP         0.1618
     14 C5'         2.2816   -0.2918   -1.9206 C.3       1 ATP         0.1504
     15 C4'         2.7248    0.0226   -0.4980 C.3       1 ATP         0.1111
     16 O4'         2.4697    1.4219   -0.2462 O.3       1 ATP        -0.1436
     17 C3'         1.9404   -0.7419    0.5596 C.3       1 ATP         0.1111
     18 O3'         2.7418   -0.8086    1.7389 O.3       1 ATP        -0.2728
     19 C2'         0.7477    0.1630    0.7858 C.3       1 ATP         0.1111
     20 O2'         0.1373   -0.0577    2.0407 O.3       1 ATP        -0.2728
     21 C1'         1.3733    1.5427    0.6747 C.3       1 ATP         0.2693
     22 N9          0.4520    2.5240    0.1767 N.pl3     1 ATP        -0.3222
     23 C8          0.1798    2.8712   -1.2933 C.ar      1 ATP         0.1640
     24 N7         -0.7494    3.8400   -1.3610 N.2       1 ATP        -0.1640
     25 C5         -1.0173    4.0603   -0.0358 C.ar      1 ATP         0.0820
     26 C6         -2.0105    5.0717    0.4241 C.ar      1 ATP         0.1640
     27 N6         -2.6723    5.7982   -0.4628 N.pl3     1 ATP        -0.4916
     28 N1         -2.1445    5.1522    1.7502 N.pl3     1 ATP        -0.4390
     29 C2         -1.3755    4.3143    2.6427 C.ar      1 ATP         0.5691
     30 N3         -0.5075    3.4292    2.2616 N.ar      1 ATP        -0.4283
     31 C4         -0.3667    3.3425    0.9070 C.ar      1 ATP         0.2226
     32 H5'1        2.8432    0.3119   -2.6398 H         1 ATP        -0.0393
     33 H5'2        1.2128   -0.0927   -2.0428 H         1 ATP        -0.0393
     34 H4'         3.8040   -0.1399   -0.4044 H         1 ATP        -0.0393
     35 H3'         1.6768   -1.7637    0.2732 H         1 ATP        -0.0393
     36 HO3'        2.2231   -1.2979    2.3952 H         1 ATP         0.2010
     37 H2'         0.0002   -0.0084   -0.0014 H         1 ATP        -0.0393
     38 HO2'       -0.1554   -0.9852    2.0577 H         1 ATP         0.2010
     39 H1'         1.7718    1.9211    1.6015 H         1 ATP        -0.0393
     40 H8          0.6089    2.4651   -2.2147 H         1 ATP         0.0000
     41 HN61       -2.5055    5.6680   -1.4503 H         1 ATP         0.2048
     42 HN62       -3.3462    6.4841   -0.1542 H         1 ATP         0.2048
     43 H2         -1.5932    4.4937    3.7066 H         1 ATP        -0.1292
     44 H44        -2.8098    5.8270    2.1160 H         1 ATP         0.2048
@<TRIPOS>BOND
     1    1    2 2
     2    1    3 1
     3    1    4 1
     4    1    8 1
     5    5    6 2
     6    5    7 1
     7    5    8 1
     8    5   12 1
     9    9   10 2
    10    9   11 1
    11    9   12 1
    12    9   13 1
    13   13   14 1
    14   14   15 1
    15   14   32 1
    16   14   33 1
    17   15   16 1
    18   15   17 1
    19   15   34 1
    20   16   21 1
    21   17   18 1
    22   17   19 1
    23   17   35 1
    24   18   36 1
    25   19   20 1
    26   19   21 1
    27   19   37 1
    28   20   38 1
    29   21   22 1
    30   21   39 1
    31   22   23 ar
    32   22   31 ar
    33   23   24 ar
    34   23   40 1
    35   24   25 ar
    36   25   26 ar
    37   25   31 ar
    38   26   27 1
    39   26   28 ar
    40   27   41 1
    41   27   42 1
    42   28   29 ar
    43   28   44 1
    44   29   30 ar
    45   29   43 1
    46   30   31 ar
@<TRIPOS>SUBSTRUCTURE
     1 ATP         1 GROUP 0 A     ****
@<TRIPOS>MOLECULE
[[[5-(6-amino-1,8-dihydropurine-6,8-diylium-7-id-9-yl)-3,4-dihydroxy-tetrahydrofuran-2-yl]methoxy-oxido-phosphoryl]oxy-oxido-phosphoryl] phosphate
   44    46     1     0     0
SMALL
USER_CHARGES

@<TRIPOS>ATOM
      1 PG         -1.5847   -0.9004   -5.1371 P.3       1 ATP        -1.1921
      2 O1G        -1.1374   -0.9624   -3.6804 O.co2     1 ATP         0.3195
      3 O2G        -2.4815    0.2873   -5.4697 O.co2     1 ATP         0.3195
      4 O3G        -2.0741   -2.2311   -5.6990 O.co2     1 ATP         0.3195
      5 PB          1.1818   -1.4809   -6.0665 P.3       1 ATP        -1.1062
      6 O1B         0.8329   -2.8986   -6.4614 O.co2     1 ATP         0.3195
      7 O2B         2.2138   -0.6855   -6.8343 O.co2     1 ATP         0.3195
      8 O3B        -0.1951   -0.6064   -5.9753 O.3       1 ATP         0.4672
      9 PA          2.8604   -2.1325   -3.7186 P.3       1 ATP        -1.1062
     10 O1A         4.1132   -1.4128   -4.1682 O.co2     1 ATP         0.3195
     11 O2A         2.7548   -3.6386   -3.8207 O.co2     1 ATP         0.3195
     12 O3A         1.5811   -1.4632   -4.4835 O.3       1 ATP         0.4672
     13 O5'         2.5245   -1.6648   -2.1878 O.3       1 ATP         0.1618
     14 C5'         2.2816   -0.2918   -1.9206 C.3       1 ATP         0.1504
     15 C4'         2.7248    0.0226   -0.4980 C.3       1 ATP         0.1111
     16 O4'         2.4697    1.4219   -0.2462 O.3       1 ATP        -0.1436
     17 C3'         1.9404   -0.7419    0.5596 C.3       1 ATP         0.1111
     18 O3'         2.7418   -0.8086    1.7389 O.3       1 ATP        -0.2728
     19 C2'         0.7477    0.1630    0.7858 C.3       1 ATP         0.1111
     20 O2'         0.1373   -0.0577    2.0407 O.3       1 ATP        -0.2728
     21 C1'         1.3733    1.5427    0.6747 C.3       1 ATP         0.2693
     22 N9          0.4520    2.5240    0.1767 N.pl3     1 ATP        -0.3222
     23 C8         -0.3054    2.4845   -1.1576 C.ar      1 ATP         0.1640
     24 N7         -1.0755    3.5806   -1.2691 N.2       1 ATP        -0.1640
     25 C5         -0.8043    4.2306   -0.0942 C.ar      1 ATP         0.0820
     26 C6         -1.4324    5.5335    0.2646 C.ar      1 ATP         0.1640
     27 N6         -2.2885    6.1054   -0.5675 N.pl3     1 ATP        -0.4916
     28 N1         -1.0537    6.0229    1.4478 N.pl3     1 ATP        -0.4390
     29 C2         -0.1096    5.3242    2.2908 C.ar      1 ATP         0.5691
     30 N3          0.4468    4.1904    1.9960 N.ar      1 ATP        -0.4283
     31 C4          0.0631    3.6855    0.7877 C.ar      1 ATP         0.2226
     32 H5'1        2.8432    0.3119   -2.6398 H         1 ATP        -0.0393
     33 H5'2        1.2128   -0.0927   -2.0428 H         1 ATP        -0.0393
     34 H4'         3.8040   -0.1399   -0.4044 H         1 ATP        -0.0393
     35 H3'         1.6768   -1.7637    0.2732 H         1 ATP        -0.0393
     36 HO3'        3.5553   -1.2733    1.4913 H         1 ATP         0.2010
     37 H2'         0.0002   -0.0084   -0.0014 H         1 ATP        -0.0393
     38 HO2'       -0.6132    0.5577    2.1063 H         1 ATP         0.2010
     39 H1'         1.7718    1.9211    1.6015 H         1 ATP        -0.0393
     40 H8         -0.2991    1.7413   -1.9611 H         1 ATP         0.0000
     41 HN61       -2.5167    5.6603   -1.4447 H         1 ATP         0.2048
     42 HN62       -2.7159    6.9882   -0.3270 H         1 ATP         0.2048
     43 H2          0.1059    5.8491    3.2340 H         1 ATP        -0.1292
     44 H44        -1.4532    6.9099    1.7401 H         1 ATP         0.2048
@<TRIPOS>BOND
     1    1    2 2
     2    1    3 1
     3    1    4 1
     4    1    8 1
     5    5    6 2
     6    5    7 1
     7    5    8 1
     8    5   12 1
     9    9   10 2
    10    9   11 1
    11    9   12 1
    12    9   13 1
    13   13   14 1
    14   14   15 1
    15   14   32 1
    16   14   33 1
    17   15   16 1
    18   15   17 1
    19   15   34 1
    20   16   21 1
    21   17   18 1
    22   17   19 1
    23   17   35 1
    24   18   36 1
    25   19   20 1
    26   19   21 1
    27   19   37 1
    28   20   38 1
    29   21   22 1
    30   21   39 1
    31   22   23 ar
    32   22   31 ar
    33   23   24 ar
    34   23   40 1
    35   24   25 ar
    36   25   26 ar
    37   25   31 ar
    38   26   27 1
    39   26   28 ar
    40   27   41 1
    41   27   42 1
    42   28   29 ar
    43   28   44 1
    44   29   30 ar
    45   29   43 1
    46   30   31 ar
@<TRIPOS>SUBSTRUCTURE
     1 ATP         1 GROUP 0 A     ****
@<TRIPOS>MOLECULE
[[[5-(6-amino-1,8-dihydropurine-6,8-diylium-7-id-9-yl)-3,4-dihydroxy-tetrahydrofuran-2-yl]methoxy-oxido-phosphoryl]oxy-oxido-phosphoryl] phosphate
   44    46     1     0     0
SMALL
USER_CHARGES

@<TRIPOS>ATOM
      1 PG          6.0452   -3.4159   -7.0583 P.3       1 ATP        -1.1921
      2 O1G         5.0374   -4.0927   -7.9815 O.co2     1 ATP         0.3195
      3 O2G         6.8055   -2.2588   -7.6975 O.co2     1 ATP         0.3195
      4 O3G         6.9235   -4.3842   -6.2729 O.co2     1 ATP         0.3195
      5 PB          4.0588   -3.3600   -4.8436 P.3       1 ATP        -1.1062
      6 O1B         2.8798   -3.9106   -5.6146 O.co2     1 ATP         0.3195
      7 O2B         4.8240   -4.2203   -3.8630 O.co2     1 ATP         0.3195
      8 O3B         5.1157   -2.6993   -5.8998 O.3       1 ATP         0.4672
      9 PA          4.4792   -0.9077   -3.2423 P.3       1 ATP        -1.1062
     10 O1A         5.4086   -0.2021   -4.2056 O.co2     1 ATP         0.3195
     11 O2A         5.0196   -1.5815   -1.9997 O.co2     1 ATP         0.3195
     12 O3A         3.5930   -1.9917   -4.0845 O.3       1 ATP         0.4672
     13 O5'         3.2903    0.1346   -2.8241 O.3       1 ATP         0.1618
     14 C5'         2.2816   -0.2918   -1.9206 C.3       1 ATP         0.1504
     15 C4'         2.7248    0.0226   -0.4980 C.3       1 ATP         0.1111
     16 O4'         2.4697    1.4219   -0.2462 O.3       1 ATP        -0.1436
     17 C3'         1.9404   -0.7419    0.5596 C.3       1 ATP         0.1111
     18 O3'         2.7418   -0.8086    1.7389 O.3       1 ATP        -0.2728
     19 C2'         0.7477    0.1630    0.7858 C.3       1 ATP         0.1111
     20 O2'         0.1373   -0.0577    2.0407 O.3       1 ATP        -0.2728
     21 C1'         1.3733    1.5427    0.6747 C.3       1 ATP         0.2693
     22 N9          0.4520    2.5240    0.1767 N.pl3     1 ATP        -0.3222
     23 C8          0.1798    2.8712   -1.2933 C.ar      1 ATP         0.1640
     24 N7         -0.7494    3.8400   -1.3610 N.2       1 ATP        -0.1640
     25 C5         -1.0173    4.0603   -0.0358 C.ar      1 ATP         0.0820
     26 C6         -2.0105    5.0717    0.4241 C.ar      1 ATP         0.1640
     27 N6         -2.6723    5.7982   -0.4628 N.pl3     1 ATP        -0.4916
     28 N1         -2.1445    5.1522    1.7502 N.pl3     1 ATP        -0.4390
     29 C2         -1.3755    4.3143    2.6427 C.ar      1 ATP         0.5691
     30 N3         -0.5075    3.4292    2.2616 N.ar      1 ATP        -0.4283
     31 C4         -0.3667    3.3425    0.9070 C.ar      1 ATP         0.2226
     32 H5'1        1.3514    0.2330   -2.1577 H         1 ATP        -0.0393
     33 H5'2        2.1280   -1.3678   -2.0460 H         1 ATP        -0.0393
     34 H4'         3.8040   -0.1399   -0.4044 H         1 ATP        -0.0393
     35 H3'         1.6768   -1.7637    0.2732 H         1 ATP        -0.0393
     36 HO3'        2.2231   -1.2979    2.3952 H         1 ATP         0.2010
     37 H2'         0.0002   -0.0084   -0.0014 H         1 ATP        -0.0393
     38 HO2'       -0.1554   -0.9852    2.0577 H         1 ATP         0.2010
     39 H1'         1.7718    1.9211    1.6015 H         1 ATP        -0.0393
     40 H8          0.6089    2.4651   -2.2147 H         1 ATP         0.0000
     41 HN61       -2.5055    5.6680   -1.4503 H         1 ATP         0.2048
     42 HN62       -3.3462    6.4841   -0.1542 H         1 ATP         0.2048
     43 H2         -1.5932    4.4937    3.7066 H         1 ATP        -0.1292
     44 H44        -2.8098    5.8270    2.1160 H         1 ATP         0.2048
@<TRIPOS>BOND
     1    1    2 2
     2    1    3 1
     3    1    4 1
     4    1    8 1
     5    5    6 2
     6    5    7 1
     7    5    8 1
     8    5   12 1
     9    9   10 2
    10    9   11 1
    11    9   12 1
    12    9   13 1
    13   13   14 1
    14   14   15 1
    15   14   32 1
    16   14   33 1
    17   15   16 1
    18   15   17 1
    19   15   34 1
    20   16   21 1
    21   17   18 1
    22   17   19 1
    23   17   35 1
    24   18   36 1
    25   19   20 1
    26   19   21 1
    27   19   37 1
    28   20   38 1
    29   21   22 1
    30   21   39 1
    31   22   23 ar
    32   22   31 ar
    33   23   24 ar
    34   23   40 1
    35   24   25 ar
    36   25   26 ar
    37   25   31 ar
    38   26   27 1
    39   26   28 ar
    40   27   41 1
    41   27   42 1
    42   28   29 ar
    43   28   44 1
    44   29   30 ar
    45   29   43 1
    46   30   31 ar
@<TRIPOS>SUBSTRUCTURE
     1 ATP         1 GROUP 0 A     ****
@<TRIPOS>MOLECULE
[[[5-(6-amino-1,8-dihydropurine-6,8-diylium-7-id-9-yl)-3,4-dihydroxy-tetrahydrofuran-2-yl]methoxy-oxido-phosphoryl]oxy-oxido-phosphoryl] phosphate
   44    46     1     0     0
SMALL
USER_CHARGES

@<TRIPOS>ATOM
      1 PG          0.4203   -3.7183   -6.8947 P.3       1 ATP        -1.1921
      2 O1G         1.2008   -3.6029   -8.1999 O.co2     1 ATP         0.3195
      3 O2G         0.6799   -5.0048   -6.1182 O.co2     1 ATP         0.3195
      4 O3G        -1.0535   -3.3439   -7.0113 O.co2     1 ATP         0.3195
      5 PB          1.1147   -0.9170   -6.1702 P.3       1 ATP        -1.1062
      6 O1B         2.0323   -0.6272   -7.3371 O.co2     1 ATP         0.3195
      7 O2B        -0.2924   -0.3646   -6.1245 O.co2     1 ATP         0.3195
      8 O3B         1.0530   -2.5330   -5.9383 O.3       1 ATP         0.4672
      9 PA          2.3343    0.9640   -4.2391 P.3       1 ATP        -1.1062
     10 O1A         1.0859    1.7599   -3.9264 O.co2     1 ATP         0.3195
     11 O2A         3.3965    1.5221   -5.1613 O.co2     1 ATP         0.3195
     12 O3A         1.8816   -0.5066   -4.7886 O.3       1 ATP         0.4672
     13 O5'         3.0213    0.5153   -2.8245 O.3       1 ATP         0.1618
     14 C5'         2.2816   -0.2918   -1.9206 C.3       1 ATP         0.1504
     15 C4'         2.7248    0.0226   -0.4980 C.3       1 ATP         0.1111
     16 O4'         2.4697    1.4219   -0.2462 O.3       1 ATP        -0.1436
     17 C3'         1.9404   -0.7419    0.5596 C.3       1 ATP         0.1111
     18 O3'         2.7418   -0.8086    1.7389 O.3       1 ATP        -0.2728
     19 C2'         0.7477    0.1630    0.7858 C.3       1 ATP         0.1111
     20 O2'         0.1373   -0.0577    2.0407 O.3       1 ATP        -0.2728
     21 C1'         1.3733    1.5427    0.6747 C.3       1 ATP         0.2693
     22 N9          0.4520    2.5240    0.1767 N.pl3     1 ATP        -0.3222
     23 C8         -1.0660    2.5608    0.3999 C.ar      1 ATP         0.1640
     24 N7         -1.5852    3.6333   -0.2221 N.2       1 ATP        -0.1640
     25 C5         -0.4682    4.1996   -0.7771 C.ar      1 ATP         0.0820
     26 C6         -0.5216    5.4476   -1.5899 C.ar      1 ATP         0.1640
     27 N6         -1.6813    6.0510   -1.7982 N.pl3     1 ATP        -0.4916
     28 N1          0.6621    5.8575   -2.0523 N.pl3     1 ATP        -0.4390
     29 C2          1.8795    5.1301   -1.7717 C.ar      1 ATP         0.5691
     30 N3          1.9458    4.0434   -1.0670 N.ar      1 ATP        -0.4283
     31 C4          0.7388    3.6199   -0.5917 C.ar      1 ATP         0.2226
     32 H5'1        1.2163   -0.0770   -2.0471 H         1 ATP        -0.0393
     33 H5'2        2.4655   -1.3443   -2.1563 H         1 ATP        -0.0393
     34 H4'         3.8040   -0.1399   -0.4044 H         1 ATP        -0.0393
     35 H3'         1.6768   -1.7637    0.2732 H         1 ATP        -0.0393
     36 HO3'        2.2231   -1.2979    2.3952 H         1 ATP         0.2010
     37 H2'         0.0002   -0.0084   -0.0014 H         1 ATP        -0.0393
     38 HO2'       -0.1554   -0.9852    2.0577 H         1 ATP         0.2010
     39 H1'         1.7718    1.9211    1.6015 H         1 ATP        -0.0393
     40 H8         -1.7235    1.8833    0.9537 H         1 ATP         0.0000
     41 HN61       -2.5296    5.6672   -1.4072 H         1 ATP         0.2048
     42 HN62       -1.7205    6.8969   -2.3483 H         1 ATP         0.2048
     43 H2          2.7750    5.5878   -2.2190 H         1 ATP        -0.1292
     44 H44         0.6808    6.7046   -2.6128 H         1 ATP         0.2048
@<TRIPOS>BOND
     1    1    2 2
     2    1    3 1
     3    1    4 1
     4    1    8 1
     5    5    6 2
     6    5    7 1
     7    5    8 1
     8    5   12 1
     9    9   10 2
    10    9   11 1
    11    9   12 1
    12    9   13 1
    13   13   14 1
    14   14   15 1
    15   14   32 1
    16   14   33 1
    17   15   16 1
    18   15   17 1
    19   15   34 1
    20   16   21 1
    21   17   18 1
    22   17   19 1
    23   17   35 1
    24   18   36 1
    25   19   20 1
    26   19   21 1
    27   19   37 1
    28   20   38 1
    29   21   22 1
    30   21   39 1
    31   22   23 ar
    32   22   31 ar
    33   23   24 ar
    34   23   40 1
    35   24   25 ar
    36   25   26 ar
    37   25   31 ar
    38   26   27 1
    39   26   28 ar
    40   27   41 1
    41   27   42 1
    42   28   29 ar
    43   28   44 1
    44   29   30 ar
    45   29   43 1
    46   30   31 ar
@<TRIPOS>SUBSTRUCTURE
     1 ATP         1 GROUP 0 A     ****
@<TRIPOS>MOLECULE
[[[5-(6-amino-1,8-dihydropurine-6,8-diylium-7-id-9-yl)-3,4-dihydroxy-tetrahydrofuran-2-yl]methoxy-oxido-phosphoryl]oxy-oxido-phosphoryl] phosphate
   44    46     1     0     0
SMALL
USER_CHARGES

@<TRIPOS>ATOM
      1 PG         -1.5913    0.0782   -6.9057 P.3       1 ATP        -1.1921
      2 O1G        -2.1124   -1.3497   -7.0301 O.co2     1 ATP         0.3195
      3 O2G        -2.5120    1.0190   -6.1357 O.co2     1 ATP         0.3195
      4 O3G        -1.0457    0.6611   -8.2052 O.co2     1 ATP         0.3195
      5 PB          1.1147   -0.9170   -6.1702 P.3       1 ATP        -1.1062
      6 O1B         0.7815   -2.3914   -6.1188 O.co2     1 ATP         0.3195
      7 O2B         1.8726   -0.3256   -7.3378 O.co2     1 ATP         0.3195
      8 O3B        -0.2576   -0.0595   -5.9455 O.3       1 ATP         0.4672
      9 PA          2.3343    0.9640   -4.2391 P.3       1 ATP        -1.1062
     10 O1A         1.0859    1.7599   -3.9264 O.co2     1 ATP         0.3195
     11 O2A         3.3965    1.5221   -5.1613 O.co2     1 ATP         0.3195
     12 O3A         1.8816   -0.5066   -4.7886 O.3       1 ATP         0.4672
     13 O5'         3.0213    0.5153   -2.8245 O.3       1 ATP         0.1618
     14 C5'         2.2816   -0.2918   -1.9206 C.3       1 ATP         0.1504
     15 C4'         2.7248    0.0226   -0.4980 C.3       1 ATP         0.1111
     16 O4'         2.4697    1.4219   -0.2462 O.3       1 ATP        -0.1436
     17 C3'         1.9404   -0.7419    0.5596 C.3       1 ATP         0.1111
     18 O3'         2.7418   -0.8086    1.7389 O.3       1 ATP        -0.2728
     19 C2'         0.7477    0.1630    0.7858 C.3       1 ATP         0.1111
     20 O2'         0.1373   -0.0577    2.0407 O.3       1 ATP        -0.2728
     21 C1'         1.3733    1.5427    0.6747 C.3       1 ATP         0.2693
     22 N9          0.4520    2.5240    0.1767 N.pl3     1 ATP        -0.3222
     23 C8         -1.0660    2.5608    0.3999 C.ar      1 ATP         0.1640
     24 N7         -1.5852    3.6333   -0.2221 N.2       1 ATP        -0.1640
     25 C5         -0.4682    4.1996   -0.7771 C.ar      1 ATP         0.0820
     26 C6         -0.5216    5.4476   -1.5899 C.ar      1 ATP         0.1640
     27 N6         -1.6813    6.0510   -1.7982 N.pl3     1 ATP        -0.4916
     28 N1          0.6621    5.8575   -2.0523 N.pl3     1 ATP        -0.4390
     29 C2          1.8795    5.1301   -1.7717 C.ar      1 ATP         0.5691
     30 N3          1.9458    4.0434   -1.0670 N.ar      1 ATP        -0.4283
     31 C4          0.7388    3.6199   -0.5917 C.ar      1 ATP         0.2226
     32 H5'1        1.2163   -0.0770   -2.0471 H         1 ATP        -0.0393
     33 H5'2        2.4655   -1.3443   -2.1563 H         1 ATP        -0.0393
     34 H4'         3.8040   -0.1399   -0.4044 H         1 ATP        -0.0393
     35 H3'         1.6768   -1.7637    0.2732 H         1 ATP        -0.0393
     36 HO3'        2.2231   -1.2979    2.3952 H         1 ATP         0.2010
     37 H2'         0.0002   -0.0084   -0.0014 H         1 ATP        -0.0393
     38 HO2'       -0.1554   -0.9852    2.0577 H         1 ATP         0.2010
     39 H1'         1.7718    1.9211    1.6015 H         1 ATP        -0.0393
     40 H8         -1.7235    1.8833    0.9537 H         1 ATP         0.0000
     41 HN61       -2.5296    5.6672   -1.4072 H         1 ATP         0.2048
     42 HN62       -1.7205    6.8969   -2.3483 H         1 ATP         0.2048
     43 H2          2.7750    5.5878   -2.2190 H         1 ATP        -0.1292
     44 H44         0.6808    6.7046   -2.6128 H         1 ATP         0.2048
@<TRIPOS>BOND
     1    1    2 2
     2    1    3 1
     3    1    4 1
     4    1    8 1
     5    5    6 2
     6    5    7 1
     7    5    8 1
     8    5   12 1
     9    9   10 2
    10    9   11 1
    11    9   12 1
    12    9   13 1
    13   13   14 1
    14   14   15 1
    15   14   32 1
    16   14   33 1
    17   15   16 1
    18   15   17 1
    19   15   34 1
    20   16   21 1
    21   17   18 1
    22   17   19 1
    23   17   35 1
    24   18   36 1
    25   19   20 1
    26   19   21 1
    27   19   37 1
    28   20   38 1
    29   21   22 1
    30   21   39 1
    31   22   23 ar
    32   22   31 ar
    33   23   24 ar
    34   23   40 1
    35   24   25 ar
    36   25   26 ar
    37   25   31 ar
    38   26   27 1
    39   26   28 ar
    40   27   41 1
    41   27   42 1
    42   28   29 ar
    43   28   44 1
    44   29   30 ar
    45   29   43 1
    46   30   31 ar
@<TRIPOS>SUBSTRUCTURE
     1 ATP         1 GROUP 0 A     ****
@<TRIPOS>MOLECULE
[[[5-(6-amino-1,8-dihydropurine-6,8-diylium-7-id-9-yl)-3,4-dihydroxy-tetrahydrofuran-2-yl]methoxy-oxido-phosphoryl]oxy-oxido-phosphoryl] phosphate
   44    46     1     0     0
SMALL
USER_CHARGES

@<TRIPOS>ATOM
      1 PG          2.0684   -4.8415   -4.4050 P.3       1 ATP        -1.1921
      2 O1G         1.1175   -5.3591   -5.4791 O.co2     1 ATP         0.3195
      3 O2G         3.0488   -5.8837   -3.8775 O.co2     1 ATP         0.3195
      4 O3G         1.3933   -4.0108   -3.3187 O.co2     1 ATP         0.3195
      5 PB          2.6150   -2.3875   -5.9965 P.3       1 ATP        -1.1062
      6 O1B         3.7049   -2.0646   -6.9943 O.co2     1 ATP         0.3195
      7 O2B         1.1671   -2.4848   -6.4224 O.co2     1 ATP         0.3195
      8 O3B         3.0211   -3.7534   -5.1976 O.3       1 ATP         0.4672
      9 PA          4.0014   -0.9657   -3.8031 P.3       1 ATP        -1.1062
     10 O1A         5.0275   -0.2484   -4.6529 O.co2     1 ATP         0.3195
     11 O2A         4.3836   -2.1871   -2.9956 O.co2     1 ATP         0.3195
     12 O3A         2.7227   -1.3402   -4.7487 O.3       1 ATP         0.4672
     13 O5'         3.2903    0.1346   -2.8241 O.3       1 ATP         0.1618
     14 C5'         2.2816   -0.2918   -1.9206 C.3       1 ATP         0.1504
     15 C4'         2.7248    0.0226   -0.4980 C.3       1 ATP         0.1111
     16 O4'         2.4697    1.4219   -0.2462 O.3       1 ATP        -0.1436
     17 C3'         1.9404   -0.7419    0.5596 C.3       1 ATP         0.1111
     18 O3'         2.7418   -0.8086    1.7389 O.3       1 ATP        -0.2728
     19 C2'         0.7477    0.1630    0.7858 C.3       1 ATP         0.1111
     20 O2'         0.1373   -0.0577    2.0407 O.3       1 ATP        -0.2728
     21 C1'         1.3733    1.5427    0.6747 C.3       1 ATP         0.2693
     22 N9          0.4520    2.5240    0.1767 N.pl3     1 ATP        -0.3222
     23 C8          0.1798    2.8712   -1.2933 C.ar      1 ATP         0.1640
     24 N7         -0.7494    3.8400   -1.3610 N.2       1 ATP        -0.1640
     25 C5         -1.0173    4.0603   -0.0358 C.ar      1 ATP         0.0820
     26 C6         -2.0105    5.0717    0.4241 C.ar      1 ATP         0.1640
     27 N6         -2.6723    5.7982   -0.4628 N.pl3     1 ATP        -0.4916
     28 N1         -2.1445    5.1522    1.7502 N.pl3     1 ATP        -0.4390
     29 C2         -1.3755    4.3143    2.6427 C.ar      1 ATP         0.5691
     30 N3         -0.5075    3.4292    2.2616 N.ar      1 ATP        -0.4283
     31 C4         -0.3667    3.3425    0.9070 C.ar      1 ATP         0.2226
     32 H5'1        1.3514    0.2330   -2.1577 H         1 ATP        -0.0393
     33 H5'2        2.1280   -1.3678   -2.0460 H         1 ATP        -0.0393
     34 H4'         3.8040   -0.1399   -0.4044 H         1 ATP        -0.0393
     35 H3'         1.6768   -1.7637    0.2732 H         1 ATP        -0.0393
     36 HO3'        2.2231   -1.2979    2.3952 H         1 ATP         0.2010
     37 H2'         0.0002   -0.0084   -0.0014 H         1 ATP        -0.0393
     38 HO2'       -0.6132    0.5577    2.1063 H         1 ATP         0.2010
     39 H1'         1.7718    1.9211    1.6015 H         1 ATP        -0.0393
     40 H8          0.6089    2.4651   -2.2147 H         1 ATP         0.0000
     41 HN61       -2.5055    5.6680   -1.4503 H         1 ATP         0.2048
     42 HN62       -3.3462    6.4841   -0.1542 H         1 ATP         0.2048
     43 H2         -1.5932    4.4937    3.7066 H         1 ATP        -0.1292
     44 H44        -2.8098    5.8270    2.1160 H         1 ATP         0.2048
@<TRIPOS>BOND
     1    1    2 2
     2    1    3 1
     3    1    4 1
     4    1    8 1
     5    5    6 2
     6    5    7 1
     7    5    8 1
     8    5   12 1
     9    9   10 2
    10    9   11 1
    11    9   12 1
    12    9   13 1
    13   13   14 1
    14   14   15 1
    15   14   32 1
    16   14   33 1
    17   15   16 1
    18   15   17 1
    19   15   34 1
    20   16   21 1
    21   17   18 1
    22   17   19 1
    23   17   35 1
    24   18   36 1
    25   19   20 1
    26   19   21 1
    27   19   37 1
    28   20   38 1
    29   21   22 1
    30   21   39 1
    31   22   23 ar
    32   22   31 ar
    33   23   24 ar
    34   23   40 1
    35   24   25 ar
    36   25   26 ar
    37   25   31 ar
    38   26   27 1
    39   26   28 ar
    40   27   41 1
    41   27   42 1
    42   28   29 ar
    43   28   44 1
    44   29   30 ar
    45   29   43 1
    46   30   31 ar
@<TRIPOS>SUBSTRUCTURE
     1 ATP         1 GROUP 0 A     ****
@<TRIPOS>MOLECULE
[[[5-(6-amino-1,8-dihydropurine-6,8-diylium-7-id-9-yl)-3,4-dihydroxy-tetrahydrofuran-2-yl]methoxy-oxido-phosphoryl]oxy-oxido-phosphoryl] phosphate
   44    46     1     0     0
SMALL
USER_CHARGES

@<TRIPOS>ATOM
      1 PG         -1.3382   -0.9512   -5.1273 P.3       1 ATP        -1.1921
      2 O1G        -1.9501   -0.3900   -3.8481 O.co2     1 ATP         0.3195
      3 O2G        -2.3533   -1.2941   -6.2125 O.co2     1 ATP         0.3195
      4 O3G        -0.2813   -2.0263   -4.8966 O.co2     1 ATP         0.3195
      5 PB          0.7549    1.1637   -5.1169 P.3       1 ATP        -1.1062
      6 O1B         1.2929    2.1057   -6.1708 O.co2     1 ATP         0.3195
      7 O2B         0.3457    1.6681   -3.7510 O.co2     1 ATP         0.3195
      8 O3B        -0.4841    0.3119   -5.7558 O.3       1 ATP         0.4672
      9 PA          3.3347   -0.0507   -4.3265 P.3       1 ATP        -1.1062
     10 O1A         4.1293    1.0001   -5.0709 O.co2     1 ATP         0.3195
     11 O2A         3.8336   -1.4764   -4.2346 O.co2     1 ATP         0.3195
     12 O3A         1.8141   -0.0637   -4.9241 O.3       1 ATP         0.4672
     13 O5'         3.0213    0.5153   -2.8245 O.3       1 ATP         0.1618
     14 C5'         2.2816   -0.2918   -1.9206 C.3       1 ATP         0.1504
     15 C4'         2.7248    0.0226   -0.4980 C.3       1 ATP         0.1111
     16 O4'         2.4697    1.4219   -0.2462 O.3       1 ATP        -0.1436
     17 C3'         1.9404   -0.7419    0.5596 C.3       1 ATP         0.1111
     18 O3'         2.7418   -0.8086    1.7389 O.3       1 ATP        -0.2728
     19 C2'         0.7477    0.1630    0.7858 C.3       1 ATP         0.1111
     20 O2'         0.1373   -0.0577    2.0407 O.3       1 ATP        -0.2728
     21 C1'         1.3733    1.5427    0.6747 C.3       1 ATP         0.2693
     22 N9          0.4520    2.5240    0.1767 N.pl3     1 ATP        -0.3222
     23 C8         -1.0660    2.5608    0.3999 C.ar      1 ATP         0.1640
     24 N7         -1.5852    3.6333   -0.2221 N.2       1 ATP        -0.1640
     25 C5         -0.4682    4.1996   -0.7771 C.ar      1 ATP         0.0820
     26 C6         -0.5216    5.4476   -1.5899 C.ar      1 ATP         0.1640
     27 N6         -1.6813    6.0510   -1.7982 N.pl3     1 ATP        -0.4916
     28 N1          0.6621    5.8575   -2.0523 N.pl3     1 ATP        -0.4390
     29 C2          1.8795    5.1301   -1.7717 C.ar      1 ATP         0.5691
     30 N3          1.9458    4.0434   -1.0670 N.ar      1 ATP        -0.4283
     31 C4          0.7388    3.6199   -0.5917 C.ar      1 ATP         0.2226
     32 H5'1        1.2163   -0.0770   -2.0471 H         1 ATP        -0.0393
     33 H5'2        2.4655   -1.3443   -2.1563 H         1 ATP        -0.0393
     34 H4'         3.8040   -0.1399   -0.4044 H         1 ATP        -0.0393
     35 H3'         1.6768   -1.7637    0.2732 H         1 ATP        -0.0393
     36 HO3'        2.2231   -1.2979    2.3952 H         1 ATP         0.2010
     37 H2'         0.0002   -0.0084   -0.0014 H         1 ATP        -0.0393
     38 HO2'       -0.1554   -0.9852    2.0577 H         1 ATP         0.2010
     39 H1'         1.7718    1.9211    1.6015 H         1 ATP        -0.0393
     40 H8         -1.7235    1.8833    0.9537 H         1 ATP         0.0000
     41 HN61       -2.5296    5.6672   -1.4072 H         1 ATP         0.2048
     42 HN62       -1.7205    6.8969   -2.3483 H         1 ATP         0.2048
     43 H2          2.7750    5.5878   -2.2190 H         1 ATP        -0.1292
     44 H44         0.6808    6.7046   -2.6128 H         1 ATP         0.2048
@<TRIPOS>BOND
     1    1    2 2
     2    1    3 1
     3    1    4 1
     4    1    8 1
     5    5    6 2
     6    5    7 1
     7    5    8 1
     8    5   12 1
     9    9   10 2
    10    9   11 1
    11    9   12 1
    12    9   13 1
    13   13   14 1
    14   14   15 1
    15   14   32 1
    16   14   33 1
    17   15   16 1
    18   15   17 1
    19   15   34 1
    20   16   21 1
    21   17   18 1
    22   17   19 1
    23   17   35 1
    24   18   36 1
    25   19   20 1
    26   19   21 1
    27   19   37 1
    28   20   38 1
    29   21   22 1
    30   21   39 1
    31   22   23 ar
    32   22   31 ar
    33   23   24 ar
    34   23   40 1
    35   24   25 ar
    36   25   26 ar
    37   25   31 ar
    38   26   27 1
    39   26   28 ar
    40   27   41 1
    41   27   42 1
    42   28   29 ar
    43   28   44 1
    44   29   30 ar
    45   29   43 1
    46   30   31 ar
@<TRIPOS>SUBSTRUCTURE
     1 ATP         1 GROUP 0 A     ****
@<TRIPOS>MOLECULE
[[[5-(6-amino-1,8-dihydropurine-6,8-diylium-7-id-9-yl)-3,4-dihydroxy-tetrahydrofuran-2-yl]methoxy-oxido-phosphoryl]oxy-oxido-phosphoryl] phosphate
   44    46     1     0     0
SMALL
USER_CHARGES

@<TRIPOS>ATOM
      1 PG          2.1993   -0.3502   -8.8825 P.3       1 ATP        -1.1921
      2 O1G         0.9409    0.4278   -9.2528 O.co2     1 ATP         0.3195
      3 O2G         3.5026    0.3393   -9.2722 O.co2     1 ATP         0.3195
      4 O3G         2.1455   -1.8328   -9.2357 O.co2     1 ATP         0.3195
      5 PB          1.1147   -0.9170   -6.1702 P.3       1 ATP        -1.1062
      6 O1B        -0.1512   -0.0970   -6.2826 O.co2     1 ATP         0.3195
      7 O2B         1.0828   -2.4254   -6.2757 O.co2     1 ATP         0.3195
      8 O3B         2.2121   -0.3386   -7.2334 O.3       1 ATP         0.4672
      9 PA          2.3343    0.9640   -4.2391 P.3       1 ATP        -1.1062
     10 O1A         1.0859    1.7599   -3.9264 O.co2     1 ATP         0.3195
     11 O2A         3.3965    1.5221   -5.1613 O.co2     1 ATP         0.3195
     12 O3A         1.8816   -0.5066   -4.7886 O.3       1 ATP         0.4672
     13 O5'         3.0213    0.5153   -2.8245 O.3       1 ATP         0.1618
     14 C5'         2.2816   -0.2918   -1.9206 C.3       1 ATP         0.1504
     15 C4'         2.7248    0.0226   -0.4980 C.3       1 ATP         0.1111
     16 O4'         2.4697    1.4219   -0.2462 O.3       1 ATP        -0.1436
     17 C3'         1.9404   -0.7419    0.5596 C.3       1 ATP         0.1111
     18 O3'         2.7418   -0.8086    1.7389 O.3       1 ATP        -0.2728
     19 C2'         0.7477    0.1630    0.7858 C.3       1 ATP         0.1111
     20 O2'         0.1373   -0.0577    2.0407 O.3       1 ATP        -0.2728
     21 C1'         1.3733    1.5427    0.6747 C.3       1 ATP         0.2693
     22 N9          0.4520    2.5240    0.1767 N.pl3     1 ATP        -0.3222
     23 C8         -1.0660    2.5608    0.3999 C.ar      1 ATP         0.1640
     24 N7         -1.5852    3.6333   -0.2221 N.2       1 ATP        -0.1640
     25 C5         -0.4682    4.1996   -0.7771 C.ar      1 ATP         0.0820
     26 C6         -0.5216    5.4476   -1.5899 C.ar      1 ATP         0.1640
     27 N6         -1.6813    6.0510   -1.7982 N.pl3     1 ATP        -0.4916
     28 N1          0.6621    5.8575   -2.0523 N.pl3     1 ATP        -0.4390
     29 C2          1.8795    5.1301   -1.7717 C.ar      1 ATP         0.5691
     30 N3          1.9458    4.0434   -1.0670 N.ar      1 ATP        -0.4283
     31 C4          0.7388    3.6199   -0.5917 C.ar      1 ATP         0.2226
     32 H5'1        1.2163   -0.0770   -2.0471 H         1 ATP        -0.0393
     33 H5'2        2.4655   -1.3443   -2.1563 H         1 ATP        -0.0393
     34 H4'         3.8040   -0.1399   -0.4044 H         1 ATP        -0.0393
     35 H3'         1.6768   -1.7637    0.2732 H         1 ATP        -0.0393
     36 HO3'        2.2231   -1.2979    2.3952 H         1 ATP         0.2010
     37 H2'         0.0002   -0.0084   -0.0014 H         1 ATP        -0.0393
     38 HO2'       -0.1554   -0.9852    2.0577 H         1 ATP         0.2010
     39 H1'         1.7718    1.9211    1.6015 H         1 ATP        -0.0393
     40 H8         -1.7235    1.8833    0.9537 H         1 ATP         0.0000
     41 HN61       -2.5296    5.6672   -1.4072 H         1 ATP         0.2048
     42 HN62       -1.7205    6.8969   -2.3483 H         1 ATP         0.2048
     43 H2          2.7750    5.5878   -2.2190 H         1 ATP        -0.1292
     44 H44         0.6808    6.7046   -2.6128 H         1 ATP         0.2048
@<TRIPOS>BOND
     1    1    2 2
     2    1    3 1
     3    1    4 1
     4    1    8 1
     5    5    6 2
     6    5    7 1
     7    5    8 1
     8    5   12 1
     9    9   10 2
    10    9   11 1
    11    9   12 1
    12    9   13 1
    13   13   14 1
    14   14   15 1
    15   14   32 1
    16   14   33 1
    17   15   16 1
    18   15   17 1
    19   15   34 1
    20   16   21 1
    21   17   18 1
    22   17   19 1
    23   17   35 1
    24   18   36 1
    25   19   20 1
    26   19   21 1
    27   19   37 1
    28   20   38 1
    29   21   22 1
    30   21   39 1
    31   22   23 ar
    32   22   31 ar
    33   23   24 ar
    34   23   40 1
    35   24   25 ar
    36   25   26 ar
    37   25   31 ar
    38   26   27 1
    39   26   28 ar
    40   27   41 1
    41   27   42 1
    42   28   29 ar
    43   28   44 1
    44   29   30 ar
    45   29   43 1
    46   30   31 ar
@<TRIPOS>SUBSTRUCTURE
     1 ATP         1 GROUP 0 A     ****
@<TRIPOS>MOLECULE
[[[5-(6-amino-1,8-dihydropurine-6,8-diylium-7-id-9-yl)-3,4-dihydroxy-tetrahydrofuran-2-yl]methoxy-oxido-phosphoryl]oxy-oxido-phosphoryl] phosphate
   44    46     1     0     0
SMALL
USER_CHARGES

@<TRIPOS>ATOM
      1 PG         -0.4859    3.2842   -6.5583 P.3       1 ATP        -1.1921
      2 O1G         0.2667    3.4538   -7.8738 O.co2     1 ATP         0.3195
      3 O2G        -1.5546    2.1965   -6.5806 O.co2     1 ATP         0.3195
      4 O3G        -0.9395    4.5944   -5.9230 O.co2     1 ATP         0.3195
      5 PB          2.0634    3.3787   -5.0265 P.3       1 ATP        -1.1062
      6 O1B         3.0074    3.4322   -6.2070 O.co2     1 ATP         0.3195
      7 O2B         1.7624    4.6142   -4.2078 O.co2     1 ATP         0.3195
      8 O3B         0.6526    2.7124   -5.5111 O.3       1 ATP         0.4672
      9 PA          2.8629    0.6171   -4.3271 P.3       1 ATP        -1.1062
     10 O1A         4.0860    0.5371   -5.2145 O.co2     1 ATP         0.3195
     11 O2A         1.5714   -0.0625   -4.7271 O.co2     1 ATP         0.3195
     12 O3A         2.5543    2.1918   -4.0188 O.3       1 ATP         0.4672
     13 O5'         3.2903    0.1346   -2.8241 O.3       1 ATP         0.1618
     14 C5'         2.2816   -0.2918   -1.9206 C.3       1 ATP         0.1504
     15 C4'         2.7248    0.0226   -0.4980 C.3       1 ATP         0.1111
     16 O4'         2.4697    1.4219   -0.2462 O.3       1 ATP        -0.1436
     17 C3'         1.9404   -0.7419    0.5596 C.3       1 ATP         0.1111
     18 O3'         2.7418   -0.8086    1.7389 O.3       1 ATP        -0.2728
     19 C2'         0.7477    0.1630    0.7858 C.3       1 ATP         0.1111
     20 O2'         0.1373   -0.0577    2.0407 O.3       1 ATP        -0.2728
     21 C1'         1.3733    1.5427    0.6747 C.3       1 ATP         0.2693
     22 N9          0.4520    2.5240    0.1767 N.pl3     1 ATP        -0.3222
     23 C8          0.5793    3.3338   -1.1209 C.ar      1 ATP         0.1640
     24 N7         -0.4807    4.1508   -1.2458 N.2       1 ATP        -0.1640
     25 C5         -1.1921    3.8572   -0.1126 C.ar      1 ATP         0.0820
     26 C6         -2.4855    4.5203    0.2163 C.ar      1 ATP         0.1640
     27 N6         -2.9873    5.4319   -0.6020 N.pl3     1 ATP        -0.4916
     28 N1         -3.0414    4.1119    1.3596 N.pl3     1 ATP        -0.4390
     29 C2         -2.4169    3.1071    2.1904 C.ar      1 ATP         0.5691
     30 N3         -1.2928    2.5191    1.9210 N.ar      1 ATP        -0.4283
     31 C4         -0.7202    2.9326    0.7534 C.ar      1 ATP         0.2226
     32 H5'1        1.3514    0.2330   -2.1577 H         1 ATP        -0.0393
     33 H5'2        2.1280   -1.3678   -2.0460 H         1 ATP        -0.0393
     34 H4'         3.8040   -0.1399   -0.4044 H         1 ATP        -0.0393
     35 H3'         1.6768   -1.7637    0.2732 H         1 ATP        -0.0393
     36 HO3'        3.5553   -1.2733    1.4913 H         1 ATP         0.2010
     37 H2'         0.0002   -0.0084   -0.0014 H         1 ATP        -0.0393
     38 HO2'        0.8091    0.1203    2.7213 H         1 ATP         0.2010
     39 H1'         1.7718    1.9211    1.6015 H         1 ATP        -0.0393
     40 H8          1.3565    3.3309   -1.8916 H         1 ATP         0.0000
     41 HN61       -2.4952    5.6785   -1.4487 H         1 ATP         0.2048
     42 HN62       -3.8637    5.8828   -0.3819 H         1 ATP         0.2048
     43 H2         -2.9911    2.8734    3.1000 H         1 ATP        -0.1292
     44 H44        -3.9253    4.5332    1.6302 H         1 ATP         0.2048
@<TRIPOS>BOND
     1    1    2 2
     2    1    3 1
     3    1    4 1
     4    1    8 1
     5    5    6 2
     6    5    7 1
     7    5    8 1
     8    5   12 1
     9    9   10 2
    10    9   11 1
    11    9   12 1
    12    9   13 1
    13   13   14 1
    14   14   15 1
    15   14   32 1
    16   14   33 1
    17   15   16 1
    18   15   17 1
    19   15   34 1
    20   16   21 1
    21   17   18 1
    22   17   19 1
    23   17   35 1
    24   18   36 1
    25   19   20 1
    26   19   21 1
    27   19   37 1
    28   20   38 1
    29   21   22 1
    30   21   39 1
    31   22   23 ar
    32   22   31 ar
    33   23   24 ar
    34   23   40 1
    35   24   25 ar
    36   25   26 ar
    37   25   31 ar
    38   26   27 1
    39   26   28 ar
    40   27   41 1
    41   27   42 1
    42   28   29 ar
    43   28   44 1
    44   29   30 ar
    45   29   43 1
    46   30   31 ar
@<TRIPOS>SUBSTRUCTURE
     1 ATP         1 GROUP 0 A     ****
@<TRIPOS>MOLECULE
[[[5-(6-amino-1,8-dihydropurine-6,8-diylium-7-id-9-yl)-3,4-dihydroxy-tetrahydrofuran-2-yl]methoxy-oxido-phosphoryl]oxy-oxido-phosphoryl] phosphate
   44    46     1     0     0
SMALL
USER_CHARGES

@<TRIPOS>ATOM
      1 PG         -1.8754   -2.6183   -6.0699 P.3       1 ATP        -1.1921
      2 O1G        -1.4067   -3.6907   -7.0478 O.co2     1 ATP         0.3195
      3 O2G        -2.7673   -3.1375   -4.9471 O.co2     1 ATP         0.3195
      4 O3G        -2.3841   -1.3437   -6.7350 O.co2     1 ATP         0.3195
      5 PB          0.8719   -1.4861   -5.9124 P.3       1 ATP        -1.1062
      6 O1B         1.5678   -2.5229   -6.7658 O.co2     1 ATP         0.3195
      7 O2B         0.5555   -0.1100   -6.4541 O.co2     1 ATP         0.3195
      8 O3B        -0.4963   -2.1387   -5.3031 O.3       1 ATP         0.4672
      9 PA          2.1639   -2.4504   -3.4314 P.3       1 ATP        -1.1062
     10 O1A         3.2035   -3.3355   -4.0836 O.co2     1 ATP         0.3195
     11 O2A         0.9291   -3.0488   -2.7933 O.co2     1 ATP         0.3195
     12 O3A         1.6996   -1.3192   -4.5151 O.3       1 ATP         0.4672
     13 O5'         2.9216   -1.4836   -2.3516 O.3       1 ATP         0.1618
     14 C5'         2.2816   -0.2918   -1.9206 C.3       1 ATP         0.1504
     15 C4'         2.7248    0.0226   -0.4980 C.3       1 ATP         0.1111
     16 O4'         2.4697    1.4219   -0.2462 O.3       1 ATP        -0.1436
     17 C3'         1.9404   -0.7419    0.5596 C.3       1 ATP         0.1111
     18 O3'         2.7418   -0.8086    1.7389 O.3       1 ATP        -0.2728
     19 C2'         0.7477    0.1630    0.7858 C.3       1 ATP         0.1111
     20 O2'         0.1373   -0.0577    2.0407 O.3       1 ATP        -0.2728
     21 C1'         1.3733    1.5427    0.6747 C.3       1 ATP         0.2693
     22 N9          0.4520    2.5240    0.1767 N.pl3     1 ATP        -0.3222
     23 C8          0.1798    2.8712   -1.2933 C.ar      1 ATP         0.1640
     24 N7         -0.7494    3.8400   -1.3610 N.2       1 ATP        -0.1640
     25 C5         -1.0173    4.0603   -0.0358 C.ar      1 ATP         0.0820
     26 C6         -2.0105    5.0717    0.4241 C.ar      1 ATP         0.1640
     27 N6         -2.6723    5.7982   -0.4628 N.pl3     1 ATP        -0.4916
     28 N1         -2.1445    5.1522    1.7502 N.pl3     1 ATP        -0.4390
     29 C2         -1.3755    4.3143    2.6427 C.ar      1 ATP         0.5691
     30 N3         -0.5075    3.4292    2.2616 N.ar      1 ATP        -0.4283
     31 C4         -0.3667    3.3425    0.9070 C.ar      1 ATP         0.2226
     32 H5'1        2.5589    0.5217   -2.5976 H         1 ATP        -0.0393
     33 H5'2        1.1982   -0.4388   -1.9617 H         1 ATP        -0.0393
     34 H4'         3.8040   -0.1399   -0.4044 H         1 ATP        -0.0393
     35 H3'         1.6768   -1.7637    0.2732 H         1 ATP        -0.0393
     36 HO3'        2.2231   -1.2979    2.3952 H         1 ATP         0.2010
     37 H2'         0.0002   -0.0084   -0.0014 H         1 ATP        -0.0393
     38 HO2'       -0.6132    0.5577    2.1063 H         1 ATP         0.2010
     39 H1'         1.7718    1.9211    1.6015 H         1 ATP        -0.0393
     40 H8          0.6089    2.4651   -2.2147 H         1 ATP         0.0000
     41 HN61       -2.5055    5.6680   -1.4503 H         1 ATP         0.2048
     42 HN62       -3.3462    6.4841   -0.1542 H         1 ATP         0.2048
     43 H2         -1.5932    4.4937    3.7066 H         1 ATP        -0.1292
     44 H44        -2.8098    5.8270    2.1160 H         1 ATP         0.2048
@<TRIPOS>BOND
     1    1    2 2
     2    1    3 1
     3    1    4 1
     4    1    8 1
     5    5    6 2
     6    5    7 1
     7    5    8 1
     8    5   12 1
     9    9   10 2
    10    9   11 1
    11    9   12 1
    12    9   13 1
    13   13   14 1
    14   14   15 1
    15   14   32 1
    16   14   33 1
    17   15   16 1
    18   15   17 1
    19   15   34 1
    20   16   21 1
    21   17   18 1
    22   17   19 1
    23   17   35 1
    24   18   36 1
    25   19   20 1
    26   19   21 1
    27   19   37 1
    28   20   38 1
    29   21   22 1
    30   21   39 1
    31   22   23 ar
    32   22   31 ar
    33   23   24 ar
    34   23   40 1
    35   24   25 ar
    36   25   26 ar
    37   25   31 ar
    38   26   27 1
    39   26   28 ar
    40   27   41 1
    41   27   42 1
    42   28   29 ar
    43   28   44 1
    44   29   30 ar
    45   29   43 1
    46   30   31 ar
@<TRIPOS>SUBSTRUCTURE
     1 ATP         1 GROUP 0 A     ****
@<TRIPOS>MOLECULE
[[[5-(6-amino-1,8-dihydropurine-6,8-diylium-7-id-9-yl)-3,4-dihydroxy-tetrahydrofuran-2-yl]methoxy-oxido-phosphoryl]oxy-oxido-phosphoryl] phosphate
   44    46     1     0     0
SMALL
USER_CHARGES

@<TRIPOS>ATOM
      1 PG         -1.1775   -0.1262   -5.3597 P.3       1 ATP        -1.1921
      2 O1G        -1.6437    0.7381   -4.1929 O.co2     1 ATP         0.3195
      3 O2G        -2.1886   -0.2492   -6.4947 O.co2     1 ATP         0.3195
      4 O3G        -0.5389   -1.4474   -4.9443 O.co2     1 ATP         0.3195
      5 PB          1.4828    1.2066   -5.3531 P.3       1 ATP        -1.1062
      6 O1B         2.3526    1.8071   -6.4349 O.co2     1 ATP         0.3195
      7 O2B         1.1851    1.9629   -4.0777 O.co2     1 ATP         0.3195
      8 O3B         0.0716    0.7243   -6.0201 O.3       1 ATP         0.4672
      9 PA          3.4850   -0.6647   -4.2376 P.3       1 ATP        -1.1062
     10 O1A         4.6156   -0.0083   -4.9995 O.co2     1 ATP         0.3195
     11 O2A         3.4906   -2.1555   -3.9776 O.co2     1 ATP         0.3195
     12 O3A         2.0765   -0.2630   -4.9618 O.3       1 ATP         0.4672
     13 O5'         3.2903    0.1346   -2.8241 O.3       1 ATP         0.1618
     14 C5'         2.2816   -0.2918   -1.9206 C.3       1 ATP         0.1504
     15 C4'         2.7248    0.0226   -0.4980 C.3       1 ATP         0.1111
     16 O4'         2.4697    1.4219   -0.2462 O.3       1 ATP        -0.1436
     17 C3'         1.9404   -0.7419    0.5596 C.3       1 ATP         0.1111
     18 O3'         2.7418   -0.8086    1.7389 O.3       1 ATP        -0.2728
     19 C2'         0.7477    0.1630    0.7858 C.3       1 ATP         0.1111
     20 O2'         0.1373   -0.0577    2.0407 O.3       1 ATP        -0.2728
     21 C1'         1.3733    1.5427    0.6747 C.3       1 ATP         0.2693
     22 N9          0.4520    2.5240    0.1767 N.pl3     1 ATP        -0.3222
     23 C8         -0.3054    2.4845   -1.1576 C.ar      1 ATP         0.1640
     24 N7         -1.0755    3.5806   -1.2691 N.2       1 ATP        -0.1640
     25 C5         -0.8043    4.2306   -0.0942 C.ar      1 ATP         0.0820
     26 C6         -1.4324    5.5335    0.2646 C.ar      1 ATP         0.1640
     27 N6         -2.2885    6.1054   -0.5675 N.pl3     1 ATP        -0.4916
     28 N1         -1.0537    6.0229    1.4478 N.pl3     1 ATP        -0.4390
     29 C2         -0.1096    5.3242    2.2908 C.ar      1 ATP         0.5691
     30 N3          0.4468    4.1904    1.9960 N.ar      1 ATP        -0.4283
     31 C4          0.0631    3.6855    0.7877 C.ar      1 ATP         0.2226
     32 H5'1        1.3514    0.2330   -2.1577 H         1 ATP        -0.0393
     33 H5'2        2.1280   -1.3678   -2.0460 H         1 ATP        -0.0393
     34 H4'         3.8040   -0.1399   -0.4044 H         1 ATP        -0.0393
     35 H3'         1.6768   -1.7637    0.2732 H         1 ATP        -0.0393
     36 HO3'        3.5553   -1.2733    1.4913 H         1 ATP         0.2010
     37 H2'         0.0002   -0.0084   -0.0014 H         1 ATP        -0.0393
     38 HO2'       -0.6132    0.5577    2.1063 H         1 ATP         0.2010
     39 H1'         1.7718    1.9211    1.6015 H         1 ATP        -0.0393
     40 H8         -0.2991    1.7413   -1.9611 H         1 ATP         0.0000
     41 HN61       -2.5167    5.6603   -1.4447 H         1 ATP         0.2048
     42 HN62       -2.7159    6.9882   -0.3270 H         1 ATP         0.2048
     43 H2          0.1059    5.8491    3.2340 H         1 ATP        -0.1292
     44 H44        -1.4532    6.9099    1.7401 H         1 ATP         0.2048
@<TRIPOS>BOND
     1    1    2 2
     2    1    3 1
     3    1    4 1
     4    1    8 1
     5    5    6 2
     6    5    7 1
     7    5    8 1
     8    5   12 1
     9    9   10 2
    10    9   11 1
    11    9   12 1
    12    9   13 1
    13   13   14 1
    14   14   15 1
    15   14   32 1
    16   14   33 1
    17   15   16 1
    18   15   17 1
    19   15   34 1
    20   16   21 1
    21   17   18 1
    22   17   19 1
    23   17   35 1
    24   18   36 1
    25   19   20 1
    26   19   21 1
    27   19   37 1
    28   20   38 1
    29   21   22 1
    30   21   39 1
    31   22   23 ar
    32   22   31 ar
    33   23   24 ar
    34   23   40 1
    35   24   25 ar
    36   25   26 ar
    37   25   31 ar
    38   26   27 1
    39   26   28 ar
    40   27   41 1
    41   27   42 1
    42   28   29 ar
    43   28   44 1
    44   29   30 ar
    45   29   43 1
    46   30   31 ar
@<TRIPOS>SUBSTRUCTURE
     1 ATP         1 GROUP 0 A     ****
@<TRIPOS>MOLECULE
[[[5-(6-amino-1,8-dihydropurine-6,8-diylium-7-id-9-yl)-3,4-dihydroxy-tetrahydrofuran-2-yl]methoxy-oxido-phosphoryl]oxy-oxido-phosphoryl] phosphate
   44    46     1     0     0
SMALL
USER_CHARGES

@<TRIPOS>ATOM
      1 PG         -5.4945   -6.0254    0.8855 P.3       1 ATP        -1.1921
      2 O1G        -5.7244   -7.4906    0.5302 O.co2     1 ATP         0.3195
      3 O2G        -6.7121   -5.1301    0.6815 O.co2     1 ATP         0.3195
      4 O3G        -4.1931   -5.4459    0.3409 O.co2     1 ATP         0.3195
      5 PB         -4.1366   -6.7976    3.4180 P.3       1 ATP        -1.1062
      6 O1B        -4.2671   -6.3412    4.8541 O.co2     1 ATP         0.3195
      7 O2B        -4.1389   -8.2670    3.0599 O.co2     1 ATP         0.3195
      8 O3B        -5.2679   -6.0354    2.5190 O.3       1 ATP         0.4672
      9 PA         -1.2298   -6.3297    3.1234 P.3       1 ATP        -1.1062
     10 O1A        -0.8462   -7.7349    2.7136 O.co2     1 ATP         0.3195
     11 O2A        -0.9723   -5.8371    4.5308 O.co2     1 ATP         0.3195
     12 O3A        -2.8087   -6.1043    2.7686 O.3       1 ATP         0.4672
     13 O5'        -0.5687   -5.2869    2.0510 O.3       1 ATP         0.1618
     14 C5'        -0.7840   -3.8935    2.2172 C.3       1 ATP         0.1504
     15 C4'        -0.0724   -3.1466    1.1027 C.3       1 ATP         0.1111
     16 O4'        -0.8674   -3.1929   -0.0945 O.3       1 ATP        -0.1436
     17 C3'         0.1338   -1.6715    1.4027 C.3       1 ATP         0.1111
     18 O3'         1.2893   -1.4445    2.1808 O.3       1 ATP        -0.2728
     19 C2'         0.2158   -1.0724    0.0128 C.3       1 ATP         0.1111
     20 O2'         1.5141   -1.2448   -0.5513 O.3       1 ATP        -0.2728
     21 C1'        -0.7897   -1.9176   -0.7583 C.3       1 ATP         0.2693
     22 N9         -2.1040   -1.3333   -0.7704 N.pl3     1 ATP        -0.3222
     23 C8         -3.2124   -1.5345    0.2719 C.ar      1 ATP         0.1640
     24 N7         -4.2964   -0.8234   -0.0828 N.2       1 ATP        -0.1640
     25 C5         -3.8754   -0.2386   -1.2478 C.ar      1 ATP         0.0820
     26 C6         -4.7432    0.6719   -2.0470 C.ar      1 ATP         0.1640
     27 N6         -5.9725    0.9415   -1.6366 N.pl3     1 ATP        -0.4916
     28 N1         -4.1703    1.1517   -3.1536 N.pl3     1 ATP        -0.4390
     29 C2         -2.8174    0.7994   -3.5215 C.ar      1 ATP         0.5691
     30 N3         -2.0475    0.0097   -2.8393 N.ar      1 ATP        -0.4283
     31 C4         -2.6278   -0.4836   -1.7071 C.ar      1 ATP         0.2226
     32 H5'1       -1.8598   -3.6968    2.1850 H         1 ATP        -0.0393
     33 H5'2       -0.3933   -3.5903    3.1931 H         1 ATP        -0.0393
     34 H4'         0.8871   -3.6466    0.8809 H         1 ATP        -0.0393
     35 H3'        -0.7370   -1.2334    1.9869 H         1 ATP        -0.0393
     36 HO3'        1.3407   -0.4871    2.3218 H         1 ATP         0.2010
     37 H2'        -0.0343   -0.0280    0.0196 H         1 ATP        -0.0393
     38 HO2'        2.1443   -0.7955    0.0378 H         1 ATP         0.2010
     39 H1'        -0.5175   -2.1046   -1.7826 H         1 ATP        -0.0393
     40 H8         -3.2310   -2.1319    1.1889 H         1 ATP         0.0000
     41 HN61       -6.3231    0.5316   -0.7829 H         1 ATP         0.2048
     42 HN62       -6.5628    1.5584   -2.1760 H         1 ATP         0.2048
     43 H2         -2.4822    1.2710   -4.4579 H         1 ATP        -0.1292
     44 H44        -4.7200    1.7780   -3.7346 H         1 ATP         0.2048
@<TRIPOS>BOND
     1    1    2 2
     2    1    3 1
     3    1    4 1
     4    1    8 1
     5    5    6 2
     6    5    7 1
     7    5    8 1
     8    5   12 1
     9    9   10 2
    10    9   11 1
    11    9   12 1
    12    9   13 1
    13   13   14 1
    14   14   15 1
    15   14   32 1
    16   14   33 1
    17   15   16 1
    18   15   17 1
    19   15   34 1
    20   16   21 1
    21   17   18 1
    22   17   19 1
    23   17   35 1
    24   18   36 1
    25   19   20 1
    26   19   21 1
    27   19   37 1
    28   20   38 1
    29   21   22 1
    30   21   39 1
    31   22   23 ar
    32   22   31 ar
    33   23   24 ar
    34   23   40 1
    35   24   25 ar
    36   25   26 ar
    37   25   31 ar
    38   26   27 1
    39   26   28 ar
    40   27   41 1
    41   27   42 1
    42   28   29 ar
    43   28   44 1
    44   29   30 ar
    45   29   43 1
    46   30   31 ar
@<TRIPOS>SUBSTRUCTURE
     1 ATP         1 GROUP 0 A     ****
@<TRIPOS>MOLECULE
[[[5-(6-amino-1,8-dihydropurine-6,8-diylium-7-id-9-yl)-3,4-dihydroxy-tetrahydrofuran-2-yl]methoxy-oxido-phosphoryl]oxy-oxido-phosphoryl] phosphate
   44    46     1     0     0
SMALL
USER_CHARGES

@<TRIPOS>ATOM
      1 PG         -5.6026   -3.8502    4.1399 P.3       1 ATP        -1.1921
      2 O1G        -6.9159   -3.3408    3.5554 O.co2     1 ATP         0.3195
      3 O2G        -5.6967   -4.3117    5.5903 O.co2     1 ATP         0.3195
      4 O3G        -4.3987   -2.9623    3.8424 O.co2     1 ATP         0.3195
      5 PB         -5.0735   -5.4551    1.6908 P.3       1 ATP        -1.1062
      6 O1B        -5.3823   -6.8968    1.3537 O.co2     1 ATP         0.3195
      7 O2B        -5.7359   -4.3175    0.9461 O.co2     1 ATP         0.3195
      8 O3B        -5.2915   -5.2315    3.2944 O.3       1 ATP         0.4672
      9 PA         -2.2649   -6.0688    2.3909 P.3       1 ATP        -1.1062
     10 O1A        -2.2218   -7.4684    1.8173 O.co2     1 ATP         0.3195
     11 O2A        -2.3876   -5.8479    3.8829 O.co2     1 ATP         0.3195
     12 O3A        -3.4558   -5.2416    1.6377 O.3       1 ATP         0.4672
     13 O5'        -0.9724   -5.2440    1.8220 O.3       1 ATP         0.1618
     14 C5'        -0.7840   -3.8935    2.2172 C.3       1 ATP         0.1504
     15 C4'        -0.0724   -3.1466    1.1027 C.3       1 ATP         0.1111
     16 O4'        -0.8674   -3.1929   -0.0945 O.3       1 ATP        -0.1436
     17 C3'         0.1338   -1.6715    1.4027 C.3       1 ATP         0.1111
     18 O3'         1.2893   -1.4445    2.1808 O.3       1 ATP        -0.2728
     19 C2'         0.2158   -1.0724    0.0128 C.3       1 ATP         0.1111
     20 O2'         1.5141   -1.2448   -0.5513 O.3       1 ATP        -0.2728
     21 C1'        -0.7897   -1.9176   -0.7583 C.3       1 ATP         0.2693
     22 N9         -2.1040   -1.3333   -0.7704 N.pl3     1 ATP        -0.3222
     23 C8         -3.2124   -1.5345    0.2719 C.ar      1 ATP         0.1640
     24 N7         -4.2964   -0.8234   -0.0828 N.2       1 ATP        -0.1640
     25 C5         -3.8754   -0.2386   -1.2478 C.ar      1 ATP         0.0820
     26 C6         -4.7432    0.6719   -2.0470 C.ar      1 ATP         0.1640
     27 N6         -5.9725    0.9415   -1.6366 N.pl3     1 ATP        -0.4916
     28 N1         -4.1703    1.1517   -3.1536 N.pl3     1 ATP        -0.4390
     29 C2         -2.8174    0.7994   -3.5215 C.ar      1 ATP         0.5691
     30 N3         -2.0475    0.0097   -2.8393 N.ar      1 ATP        -0.4283
     31 C4         -2.6278   -0.4836   -1.7071 C.ar      1 ATP         0.2226
     32 H5'1       -1.7618   -3.4448    2.4164 H         1 ATP        -0.0393
     33 H5'2       -0.1874   -3.8744    3.1341 H         1 ATP        -0.0393
     34 H4'         0.8871   -3.6466    0.8809 H         1 ATP        -0.0393
     35 H3'        -0.7370   -1.2334    1.9869 H         1 ATP        -0.0393
     36 HO3'        1.3407   -0.4871    2.3218 H         1 ATP         0.2010
     37 H2'        -0.0343   -0.0280    0.0196 H         1 ATP        -0.0393
     38 HO2'        2.1443   -0.7955    0.0378 H         1 ATP         0.2010
     39 H1'        -0.5175   -2.1046   -1.7826 H         1 ATP        -0.0393
     40 H8         -3.2310   -2.1319    1.1889 H         1 ATP         0.0000
     41 HN61       -6.3231    0.5316   -0.7829 H         1 ATP         0.2048
     42 HN62       -6.5628    1.5584   -2.1760 H         1 ATP         0.2048
     43 H2         -2.4822    1.2710   -4.4579 H         1 ATP        -0.1292
     44 H44        -4.7200    1.7780   -3.7346 H         1 ATP         0.2048
@<TRIPOS>BOND
     1    1    2 2
     2    1    3 1
     3    1    4 1
     4    1    8 1
     5    5    6 2
     6    5    7 1
     7    5    8 1
     8    5   12 1
     9    9   10 2
    10    9   11 1
    11    9   12 1
    12    9   13 1
    13   13   14 1
    14   14   15 1
    15   14   32 1
    16   14   33 1
    17   15   16 1
    18   15   17 1
    19   15   34 1
    20   16   21 1
    21   17   18 1
    22   17   19 1
    23   17   35 1
    24   18   36 1
    25   19   20 1
    26   19   21 1
    27   19   37 1
    28   20   38 1
    29   21   22 1
    30   21   39 1
    31   22   23 ar
    32   22   31 ar
    33   23   24 ar
    34   23   40 1
    35   24   25 ar
    36   25   26 ar
    37   25   31 ar
    38   26   27 1
    39   26   28 ar
    40   27   41 1
    41   27   42 1
    42   28   29 ar
    43   28   44 1
    44   29   30 ar
    45   29   43 1
    46   30   31 ar
@<TRIPOS>SUBSTRUCTURE
     1 ATP         1 GROUP 0 A     ****
@<TRIPOS>MOLECULE
[[[5-(6-amino-1,8-dihydropurine-6,8-diylium-7-id-9-yl)-3,4-dihydroxy-tetrahydrofuran-2-yl]methoxy-oxido-phosphoryl]oxy-oxido-phosphoryl] phosphate
   44    46     1     0     0
SMALL
USER_CHARGES

@<TRIPOS>ATOM
      1 PG         -7.1775   -4.6728    3.3793 P.3       1 ATP        -1.1921
      2 O1G        -7.2294   -4.4593    4.8884 O.co2     1 ATP         0.3195
      3 O2G        -7.5299   -3.4379    2.5568 O.co2     1 ATP         0.3195
      4 O3G        -7.8535   -5.9549    2.9046 O.co2     1 ATP         0.3195
      5 PB         -4.5710   -6.0885    3.6158 P.3       1 ATP        -1.1062
      6 O1B        -4.3627   -5.8834    5.0998 O.co2     1 ATP         0.3195
      7 O2B        -5.0152   -7.4249    3.0646 O.co2     1 ATP         0.3195
      8 O3B        -5.5797   -4.9293    3.0611 O.3       1 ATP         0.4672
      9 PA         -1.7206   -6.2776    2.8449 P.3       1 ATP        -1.1062
     10 O1A        -1.7877   -7.6349    2.1795 O.co2     1 ATP         0.3195
     11 O2A        -1.1371   -6.1247    4.2328 O.co2     1 ATP         0.3195
     12 O3A        -3.2178   -5.6235    2.8296 O.3       1 ATP         0.4672
     13 O5'        -0.9724   -5.2440    1.8220 O.3       1 ATP         0.1618
     14 C5'        -0.7840   -3.8935    2.2172 C.3       1 ATP         0.1504
     15 C4'        -0.0724   -3.1466    1.1027 C.3       1 ATP         0.1111
     16 O4'        -0.8674   -3.1929   -0.0945 O.3       1 ATP        -0.1436
     17 C3'         0.1338   -1.6715    1.4027 C.3       1 ATP         0.1111
     18 O3'         1.2893   -1.4445    2.1808 O.3       1 ATP        -0.2728
     19 C2'         0.2158   -1.0724    0.0128 C.3       1 ATP         0.1111
     20 O2'         1.5141   -1.2448   -0.5513 O.3       1 ATP        -0.2728
     21 C1'        -0.7897   -1.9176   -0.7583 C.3       1 ATP         0.2693
     22 N9         -2.1040   -1.3333   -0.7704 N.pl3     1 ATP        -0.3222
     23 C8         -3.2124   -1.5345    0.2719 C.ar      1 ATP         0.1640
     24 N7         -4.2964   -0.8234   -0.0828 N.2       1 ATP        -0.1640
     25 C5         -3.8754   -0.2386   -1.2478 C.ar      1 ATP         0.0820
     26 C6         -4.7432    0.6719   -2.0470 C.ar      1 ATP         0.1640
     27 N6         -5.9725    0.9415   -1.6366 N.pl3     1 ATP        -0.4916
     28 N1         -4.1703    1.1517   -3.1536 N.pl3     1 ATP        -0.4390
     29 C2         -2.8174    0.7994   -3.5215 C.ar      1 ATP         0.5691
     30 N3         -2.0475    0.0097   -2.8393 N.ar      1 ATP        -0.4283
     31 C4         -2.6278   -0.4836   -1.7071 C.ar      1 ATP         0.2226
     32 H5'1       -1.7618   -3.4448    2.4164 H         1 ATP        -0.0393
     33 H5'2       -0.1874   -3.8744    3.1341 H         1 ATP        -0.0393
     34 H4'         0.8871   -3.6466    0.8809 H         1 ATP        -0.0393
     35 H3'        -0.7370   -1.2334    1.9869 H         1 ATP        -0.0393
     36 HO3'        1.1625   -1.9325    3.0084 H         1 ATP         0.2010
     37 H2'        -0.0343   -0.0280    0.0196 H         1 ATP        -0.0393
     38 HO2'        2.1443   -0.7955    0.0378 H         1 ATP         0.2010
     39 H1'        -0.5175   -2.1046   -1.7826 H         1 ATP        -0.0393
     40 H8         -3.2310   -2.1319    1.1889 H         1 ATP         0.0000
     41 HN61       -6.3231    0.5316   -0.7829 H         1 ATP         0.2048
     42 HN62       -6.5628    1.5584   -2.1760 H         1 ATP         0.2048
     43 H2         -2.4822    1.2710   -4.4579 H         1 ATP        -0.1292
     44 H44        -4.7200    1.7780   -3.7346 H         1 ATP         0.2048
@<TRIPOS>BOND
     1    1    2 2
     2    1    3 1
     3    1    4 1
     4    1    8 1
     5    5    6 2
     6    5    7 1
     7    5    8 1
     8    5   12 1
     9    9   10 2
    10    9   11 1
    11    9   12 1
    12    9   13 1
    13   13   14 1
    14   14   15 1
    15   14   32 1
    16   14   33 1
    17   15   16 1
    18   15   17 1
    19   15   34 1
    20   16   21 1
    21   17   18 1
    22   17   19 1
    23   17   35 1
    24   18   36 1
    25   19   20 1
    26   19   21 1
    27   19   37 1
    28   20   38 1
    29   21   22 1
    30   21   39 1
    31   22   23 ar
    32   22   31 ar
    33   23   24 ar
    34   23   40 1
    35   24   25 ar
    36   25   26 ar
    37   25   31 ar
    38   26   27 1
    39   26   28 ar
    40   27   41 1
    41   27   42 1
    42   28   29 ar
    43   28   44 1
    44   29   30 ar
    45   29   43 1
    46   30   31 ar
@<TRIPOS>SUBSTRUCTURE
     1 ATP         1 GROUP 0 A     ****
@<TRIPOS>MOLECULE
[[[5-(6-amino-1,8-dihydropurine-6,8-diylium-7-id-9-yl)-3,4-dihydroxy-tetrahydrofuran-2-yl]methoxy-oxido-phosphoryl]oxy-oxido-phosphoryl] phosphate
   44    46     1     0     0
SMALL
USER_CHARGES

@<TRIPOS>ATOM
      1 PG          5.9854   -4.2839   -5.0513 P.3       1 ATP        -1.1921
      2 O1G         6.4720   -4.4441   -3.6149 O.co2     1 ATP         0.3195
      3 O2G         5.2212   -5.4868   -5.5943 O.co2     1 ATP         0.3195
      4 O3G         7.0323   -3.7234   -6.0083 O.co2     1 ATP         0.3195
      5 PB          4.9946   -1.5400   -4.4659 P.3       1 ATP        -1.1062
      6 O1B         5.2876   -1.5308   -2.9821 O.co2     1 ATP         0.3195
      7 O2B         5.8754   -0.7935   -5.4428 O.co2     1 ATP         0.3195
      8 O3B         4.8518   -3.0893   -4.9642 O.3       1 ATP         0.4672
      9 PA          2.7413    0.3775   -4.4298 P.3       1 ATP        -1.1062
     10 O1A         1.2503    0.2253   -4.6379 O.co2     1 ATP         0.3195
     11 O2A         3.5211    1.4416   -5.1712 O.co2     1 ATP         0.3195
     12 O3A         3.4474   -1.0719   -4.6954 O.3       1 ATP         0.4672
     13 O5'         3.0213    0.5153   -2.8245 O.3       1 ATP         0.1618
     14 C5'         2.2816   -0.2918   -1.9206 C.3       1 ATP         0.1504
     15 C4'         2.7248    0.0226   -0.4980 C.3       1 ATP         0.1111
     16 O4'         2.4697    1.4219   -0.2462 O.3       1 ATP        -0.1436
     17 C3'         1.9404   -0.7419    0.5596 C.3       1 ATP         0.1111
     18 O3'         2.7418   -0.8086    1.7389 O.3       1 ATP        -0.2728
     19 C2'         0.7477    0.1630    0.7858 C.3       1 ATP         0.1111
     20 O2'         0.1373   -0.0577    2.0407 O.3       1 ATP        -0.2728
     21 C1'         1.3733    1.5427    0.6747 C.3       1 ATP         0.2693
     22 N9          0.4520    2.5240    0.1767 N.pl3     1 ATP        -0.3222
     23 C8         -1.0660    2.5608    0.3999 C.ar      1 ATP         0.1640
     24 N7         -1.5852    3.6333   -0.2221 N.2       1 ATP        -0.1640
     25 C5         -0.4682    4.1996   -0.7771 C.ar      1 ATP         0.0820
     26 C6         -0.5216    5.4476   -1.5899 C.ar      1 ATP         0.1640
     27 N6         -1.6813    6.0510   -1.7982 N.pl3     1 ATP        -0.4916
     28 N1          0.6621    5.8575   -2.0523 N.pl3     1 ATP        -0.4390
     29 C2          1.8795    5.1301   -1.7717 C.ar      1 ATP         0.5691
     30 N3          1.9458    4.0434   -1.0670 N.ar      1 ATP        -0.4283
     31 C4          0.7388    3.6199   -0.5917 C.ar      1 ATP         0.2226
     32 H5'1        1.2163   -0.0770   -2.0471 H         1 ATP        -0.0393
     33 H5'2        2.4655   -1.3443   -2.1563 H         1 ATP        -0.0393
     34 H4'         3.8040   -0.1399   -0.4044 H         1 ATP        -0.0393
     35 H3'         1.6768   -1.7637    0.2732 H         1 ATP        -0.0393
     36 HO3'        2.2231   -1.2979    2.3952 H         1 ATP         0.2010
     37 H2'         0.0002   -0.0084   -0.0014 H         1 ATP        -0.0393
     38 HO2'       -0.1554   -0.9852    2.0577 H         1 ATP         0.2010
     39 H1'         1.7718    1.9211    1.6015 H         1 ATP        -0.0393
     40 H8         -1.7235    1.8833    0.9537 H         1 ATP         0.0000
     41 HN61       -2.5296    5.6672   -1.4072 H         1 ATP         0.2048
     42 HN62       -1.7205    6.8969   -2.3483 H         1 ATP         0.2048
     43 H2          2.7750    5.5878   -2.2190 H         1 ATP        -0.1292
     44 H44         0.6808    6.7046   -2.6128 H         1 ATP         0.2048
@<TRIPOS>BOND
     1    1    2 2
     2    1    3 1
     3    1    4 1
     4    1    8 1
     5    5    6 2
     6    5    7 1
     7    5    8 1
     8    5   12 1
     9    9   10 2
    10    9   11 1
    11    9   12 1
    12    9   13 1
    13   13   14 1
    14   14   15 1
    15   14   32 1
    16   14   33 1
    17   15   16 1
    18   15   17 1
    19   15   34 1
    20   16   21 1
    21   17   18 1
    22   17   19 1
    23   17   35 1
    24   18   36 1
    25   19   20 1
    26   19   21 1
    27   19   37 1
    28   20   38 1
    29   21   22 1
    30   21   39 1
    31   22   23 ar
    32   22   31 ar
    33   23   24 ar
    34   23   40 1
    35   24   25 ar
    36   25   26 ar
    37   25   31 ar
    38   26   27 1
    39   26   28 ar
    40   27   41 1
    41   27   42 1
    42   28   29 ar
    43   28   44 1
    44   29   30 ar
    45   29   43 1
    46   30   31 ar
@<TRIPOS>SUBSTRUCTURE
     1 ATP         1 GROUP 0 A     ****
@<TRIPOS>MOLECULE
[[[5-(6-amino-1,8-dihydropurine-6,8-diylium-7-id-9-yl)-3,4-dihydroxy-tetrahydrofuran-2-yl]methoxy-oxido-phosphoryl]oxy-oxido-phosphoryl] phosphate
   44    46     1     0     0
SMALL
USER_CHARGES

@<TRIPOS>ATOM
      1 PG         -0.9876    0.7261   -7.2370 P.3       1 ATP        -1.1921
      2 O1G        -1.9346   -0.4686   -7.2803 O.co2     1 ATP         0.3195
      3 O2G        -1.5953    1.9889   -6.6357 O.co2     1 ATP         0.3195
      4 O3G        -0.2133    0.9585   -8.5302 O.co2     1 ATP         0.3195
      5 PB          1.2076   -0.9847   -6.1842 P.3       1 ATP        -1.1062
      6 O1B         0.4135   -2.2630   -6.0326 O.co2     1 ATP         0.3195
      7 O2B         2.1780   -0.7966   -7.3288 O.co2     1 ATP         0.3195
      8 O3B         0.1759    0.2818   -6.1559 O.3       1 ATP         0.4672
      9 PA          2.8629    0.6171   -4.3271 P.3       1 ATP        -1.1062
     10 O1A         1.9237    1.7962   -4.1954 O.co2     1 ATP         0.3195
     11 O2A         4.0968    0.7049   -5.1988 O.co2     1 ATP         0.3195
     12 O3A         1.9898   -0.6867   -4.7825 O.3       1 ATP         0.4672
     13 O5'         3.2903    0.1346   -2.8241 O.3       1 ATP         0.1618
     14 C5'         2.2816   -0.2918   -1.9206 C.3       1 ATP         0.1504
     15 C4'         2.7248    0.0226   -0.4980 C.3       1 ATP         0.1111
     16 O4'         2.4697    1.4219   -0.2462 O.3       1 ATP        -0.1436
     17 C3'         1.9404   -0.7419    0.5596 C.3       1 ATP         0.1111
     18 O3'         2.7418   -0.8086    1.7389 O.3       1 ATP        -0.2728
     19 C2'         0.7477    0.1630    0.7858 C.3       1 ATP         0.1111
     20 O2'         0.1373   -0.0577    2.0407 O.3       1 ATP        -0.2728
     21 C1'         1.3733    1.5427    0.6747 C.3       1 ATP         0.2693
     22 N9          0.4520    2.5240    0.1767 N.pl3     1 ATP        -0.3222
     23 C8          0.5793    3.3338   -1.1209 C.ar      1 ATP         0.1640
     24 N7         -0.4807    4.1508   -1.2458 N.2       1 ATP        -0.1640
     25 C5         -1.1921    3.8572   -0.1126 C.ar      1 ATP         0.0820
     26 C6         -2.4855    4.5203    0.2163 C.ar      1 ATP         0.1640
     27 N6         -2.9873    5.4319   -0.6020 N.pl3     1 ATP        -0.4916
     28 N1         -3.0414    4.1119    1.3596 N.pl3     1 ATP        -0.4390
     29 C2         -2.4169    3.1071    2.1904 C.ar      1 ATP         0.5691
     30 N3         -1.2928    2.5191    1.9210 N.ar      1 ATP        -0.4283
     31 C4         -0.7202    2.9326    0.7534 C.ar      1 ATP         0.2226
     32 H5'1        1.3514    0.2330   -2.1577 H         1 ATP        -0.0393
     33 H5'2        2.1280   -1.3678   -2.0460 H         1 ATP        -0.0393
     34 H4'         3.8040   -0.1399   -0.4044 H         1 ATP        -0.0393
     35 H3'         1.6768   -1.7637    0.2732 H         1 ATP        -0.0393
     36 HO3'        3.5553   -1.2733    1.4913 H         1 ATP         0.2010
     37 H2'         0.0002   -0.0084   -0.0014 H         1 ATP        -0.0393
     38 HO2'        0.8091    0.1203    2.7213 H         1 ATP         0.2010
     39 H1'         1.7718    1.9211    1.6015 H         1 ATP        -0.0393
     40 H8          1.3565    3.3309   -1.8916 H         1 ATP         0.0000
     41 HN61       -2.4952    5.6785   -1.4487 H         1 ATP         0.2048
     42 HN62       -3.8637    5.8828   -0.3819 H         1 ATP         0.2048
     43 H2         -2.9911    2.8734    3.1000 H         1 ATP        -0.1292
     44 H44        -3.9253    4.5332    1.6302 H         1 ATP         0.2048
@<TRIPOS>BOND
     1    1    2 2
     2    1    3 1
     3    1    4 1
     4    1    8 1
     5    5    6 2
     6    5    7 1
     7    5    8 1
     8    5   12 1
     9    9   10 2
    10    9   11 1
    11    9   12 1
    12    9   13 1
    13   13   14 1
    14   14   15 1
    15   14   32 1
    16   14   33 1
    17   15   16 1
    18   15   17 1
    19   15   34 1
    20   16   21 1
    21   17   18 1
    22   17   19 1
    23   17   35 1
    24   18   36 1
    25   19   20 1
    26   19   21 1
    27   19   37 1
    28   20   38 1
    29   21   22 1
    30   21   39 1
    31   22   23 ar
    32   22   31 ar
    33   23   24 ar
    34   23   40 1
    35   24   25 ar
    36   25   26 ar
    37   25   31 ar
    38   26   27 1
    39   26   28 ar
    40   27   41 1
    41   27   42 1
    42   28   29 ar
    43   28   44 1
    44   29   30 ar
    45   29   43 1
    46   30   31 ar
@<TRIPOS>SUBSTRUCTURE
     1 ATP         1 GROUP 0 A     ****
@<TRIPOS>MOLECULE
[[[5-(6-amino-1,8-dihydropurine-6,8-diylium-7-id-9-yl)-3,4-dihydroxy-tetrahydrofuran-2-yl]methoxy-oxido-phosphoryl]oxy-oxido-phosphoryl] phosphate
   44    46     1     0     0
SMALL
USER_CHARGES

@<TRIPOS>ATOM
      1 PG          5.6724   -3.8848   -2.5591 P.3       1 ATP        -1.1921
      2 O1G         4.2931   -3.9469   -3.2069 O.co2     1 ATP         0.3195
      3 O2G         6.5960   -5.0389   -2.9340 O.co2     1 ATP         0.3195
      4 O3G         5.6503   -3.5592   -1.0693 O.co2     1 ATP         0.3195
      5 PB          5.9142   -0.9952   -3.2268 P.3       1 ATP        -1.1062
      6 O1B         5.6883   -0.5673   -1.7938 O.co2     1 ATP         0.3195
      7 O2B         6.8221   -0.2082   -4.1453 O.co2     1 ATP         0.3195
      8 O3B         6.3809   -2.5608   -3.2409 O.3       1 ATP         0.4672
      9 PA          3.3347   -0.0507   -4.3265 P.3       1 ATP        -1.1062
     10 O1A         2.1000   -0.7669   -4.8285 O.co2     1 ATP         0.3195
     11 O2A         3.9855    1.0390   -5.1506 O.co2     1 ATP         0.3195
     12 O3A         4.4630   -1.1721   -3.9537 O.3       1 ATP         0.4672
     13 O5'         3.0213    0.5153   -2.8245 O.3       1 ATP         0.1618
     14 C5'         2.2816   -0.2918   -1.9206 C.3       1 ATP         0.1504
     15 C4'         2.7248    0.0226   -0.4980 C.3       1 ATP         0.1111
     16 O4'         2.4697    1.4219   -0.2462 O.3       1 ATP        -0.1436
     17 C3'         1.9404   -0.7419    0.5596 C.3       1 ATP         0.1111
     18 O3'         2.7418   -0.8086    1.7389 O.3       1 ATP        -0.2728
     19 C2'         0.7477    0.1630    0.7858 C.3       1 ATP         0.1111
     20 O2'         0.1373   -0.0577    2.0407 O.3       1 ATP        -0.2728
     21 C1'         1.3733    1.5427    0.6747 C.3       1 ATP         0.2693
     22 N9          0.4520    2.5240    0.1767 N.pl3     1 ATP        -0.3222
     23 C8         -0.3054    2.4845   -1.1576 C.ar      1 ATP         0.1640
     24 N7         -1.0755    3.5806   -1.2691 N.2       1 ATP        -0.1640
     25 C5         -0.8043    4.2306   -0.0942 C.ar      1 ATP         0.0820
     26 C6         -1.4324    5.5335    0.2646 C.ar      1 ATP         0.1640
     27 N6         -2.2885    6.1054   -0.5675 N.pl3     1 ATP        -0.4916
     28 N1         -1.0537    6.0229    1.4478 N.pl3     1 ATP        -0.4390
     29 C2         -0.1096    5.3242    2.2908 C.ar      1 ATP         0.5691
     30 N3          0.4468    4.1904    1.9960 N.ar      1 ATP        -0.4283
     31 C4          0.0631    3.6855    0.7877 C.ar      1 ATP         0.2226
     32 H5'1        1.2163   -0.0770   -2.0471 H         1 ATP        -0.0393
     33 H5'2        2.4655   -1.3443   -2.1563 H         1 ATP        -0.0393
     34 H4'         3.8040   -0.1399   -0.4044 H         1 ATP        -0.0393
     35 H3'         1.6768   -1.7637    0.2732 H         1 ATP        -0.0393
     36 HO3'        2.2231   -1.2979    2.3952 H         1 ATP         0.2010
     37 H2'         0.0002   -0.0084   -0.0014 H         1 ATP        -0.0393
     38 HO2'       -0.6132    0.5577    2.1063 H         1 ATP         0.2010
     39 H1'         1.7718    1.9211    1.6015 H         1 ATP        -0.0393
     40 H8         -0.2991    1.7413   -1.9611 H         1 ATP         0.0000
     41 HN61       -2.5167    5.6603   -1.4447 H         1 ATP         0.2048
     42 HN62       -2.7159    6.9882   -0.3270 H         1 ATP         0.2048
     43 H2          0.1059    5.8491    3.2340 H         1 ATP        -0.1292
     44 H44        -1.4532    6.9099    1.7401 H         1 ATP         0.2048
@<TRIPOS>BOND
     1    1    2 2
     2    1    3 1
     3    1    4 1
     4    1    8 1
     5    5    6 2
     6    5    7 1
     7    5    8 1
     8    5   12 1
     9    9   10 2
    10    9   11 1
    11    9   12 1
    12    9   13 1
    13   13   14 1
    14   14   15 1
    15   14   32 1
    16   14   33 1
    17   15   16 1
    18   15   17 1
    19   15   34 1
    20   16   21 1
    21   17   18 1
    22   17   19 1
    23   17   35 1
    24   18   36 1
    25   19   20 1
    26   19   21 1
    27   19   37 1
    28   20   38 1
    29   21   22 1
    30   21   39 1
    31   22   23 ar
    32   22   31 ar
    33   23   24 ar
    34   23   40 1
    35   24   25 ar
    36   25   26 ar
    37   25   31 ar
    38   26   27 1
    39   26   28 ar
    40   27   41 1
    41   27   42 1
    42   28   29 ar
    43   28   44 1
    44   29   30 ar
    45   29   43 1
    46   30   31 ar
@<TRIPOS>SUBSTRUCTURE
     1 ATP         1 GROUP 0 A     ****
@<TRIPOS>MOLECULE
[[[5-(6-amino-1,8-dihydropurine-6,8-diylium-7-id-9-yl)-3,4-dihydroxy-tetrahydrofuran-2-yl]methoxy-oxido-phosphoryl]oxy-oxido-phosphoryl] phosphate
   44    46     1     0     0
SMALL
USER_CHARGES

@<TRIPOS>ATOM
      1 PG         -0.5138   -1.5584   -5.8443 P.3       1 ATP        -1.1921
      2 O1G        -0.7897   -0.3032   -5.0233 O.co2     1 ATP         0.3195
      3 O2G        -1.4298   -1.7351   -7.0506 O.co2     1 ATP         0.3195
      4 O3G        -0.3244   -2.8221   -5.0117 O.co2     1 ATP         0.3195
      5 PB          2.4129   -1.0259   -5.7729 P.3       1 ATP        -1.1062
      6 O1B         2.6671   -2.1345   -4.7760 O.co2     1 ATP         0.3195
      7 O2B         3.4360   -0.6727   -6.8293 O.co2     1 ATP         0.3195
      8 O3B         0.9753   -1.2933   -6.5017 O.3       1 ATP         0.4672
      9 PA          2.9240    1.2545   -3.9582 P.3       1 ATP        -1.1062
     10 O1A         2.0249    2.2929   -3.3233 O.co2     1 ATP         0.3195
     11 O2A         4.1847    1.6651   -4.6876 O.co2     1 ATP         0.3195
     12 O3A         2.0173    0.3308   -4.9553 O.3       1 ATP         0.4672
     13 O5'         3.2903    0.1346   -2.8241 O.3       1 ATP         0.1618
     14 C5'         2.2816   -0.2918   -1.9206 C.3       1 ATP         0.1504
     15 C4'         2.7248    0.0226   -0.4980 C.3       1 ATP         0.1111
     16 O4'         2.4697    1.4219   -0.2462 O.3       1 ATP        -0.1436
     17 C3'         1.9404   -0.7419    0.5596 C.3       1 ATP         0.1111
     18 O3'         2.7418   -0.8086    1.7389 O.3       1 ATP        -0.2728
     19 C2'         0.7477    0.1630    0.7858 C.3       1 ATP         0.1111
     20 O2'         0.1373   -0.0577    2.0407 O.3       1 ATP        -0.2728
     21 C1'         1.3733    1.5427    0.6747 C.3       1 ATP         0.2693
     22 N9          0.4520    2.5240    0.1767 N.pl3     1 ATP        -0.3222
     23 C8         -0.3054    2.4845   -1.1576 C.ar      1 ATP         0.1640
     24 N7         -1.0755    3.5806   -1.2691 N.2       1 ATP        -0.1640
     25 C5         -0.8043    4.2306   -0.0942 C.ar      1 ATP         0.0820
     26 C6         -1.4324    5.5335    0.2646 C.ar      1 ATP         0.1640
     27 N6         -2.2885    6.1054   -0.5675 N.pl3     1 ATP        -0.4916
     28 N1         -1.0537    6.0229    1.4478 N.pl3     1 ATP        -0.4390
     29 C2         -0.1096    5.3242    2.2908 C.ar      1 ATP         0.5691
     30 N3          0.4468    4.1904    1.9960 N.ar      1 ATP        -0.4283
     31 C4          0.0631    3.6855    0.7877 C.ar      1 ATP         0.2226
     32 H5'1        1.3514    0.2330   -2.1577 H         1 ATP        -0.0393
     33 H5'2        2.1280   -1.3678   -2.0460 H         1 ATP        -0.0393
     34 H4'         3.8040   -0.1399   -0.4044 H         1 ATP        -0.0393
     35 H3'         1.6768   -1.7637    0.2732 H         1 ATP        -0.0393
     36 HO3'        2.2231   -1.2979    2.3952 H         1 ATP         0.2010
     37 H2'         0.0002   -0.0084   -0.0014 H         1 ATP        -0.0393
     38 HO2'       -0.6132    0.5577    2.1063 H         1 ATP         0.2010
     39 H1'         1.7718    1.9211    1.6015 H         1 ATP        -0.0393
     40 H8         -0.2991    1.7413   -1.9611 H         1 ATP         0.0000
     41 HN61       -2.5167    5.6603   -1.4447 H         1 ATP         0.2048
     42 HN62       -2.7159    6.9882   -0.3270 H         1 ATP         0.2048
     43 H2          0.1059    5.8491    3.2340 H         1 ATP        -0.1292
     44 H44        -1.4532    6.9099    1.7401 H         1 ATP         0.2048
@<TRIPOS>BOND
     1    1    2 2
     2    1    3 1
     3    1    4 1
     4    1    8 1
     5    5    6 2
     6    5    7 1
     7    5    8 1
     8    5   12 1
     9    9   10 2
    10    9   11 1
    11    9   12 1
    12    9   13 1
    13   13   14 1
    14   14   15 1
    15   14   32 1
    16   14   33 1
    17   15   16 1
    18   15   17 1
    19   15   34 1
    20   16   21 1
    21   17   18 1
    22   17   19 1
    23   17   35 1
    24   18   36 1
    25   19   20 1
    26   19   21 1
    27   19   37 1
    28   20   38 1
    29   21   22 1
    30   21   39 1
    31   22   23 ar
    32   22   31 ar
    33   23   24 ar
    34   23   40 1
    35   24   25 ar
    36   25   26 ar
    37   25   31 ar
    38   26   27 1
    39   26   28 ar
    40   27   41 1
    41   27   42 1
    42   28   29 ar
    43   28   44 1
    44   29   30 ar
    45   29   43 1
    46   30   31 ar
@<TRIPOS>SUBSTRUCTURE
     1 ATP         1 GROUP 0 A     ****
@<TRIPOS>MOLECULE
[[[5-(6-amino-1,8-dihydropurine-6,8-diylium-7-id-9-yl)-3,4-dihydroxy-tetrahydrofuran-2-yl]methoxy-oxido-phosphoryl]oxy-oxido-phosphoryl] phosphate
   44    46     1     0     0
SMALL
USER_CHARGES

@<TRIPOS>ATOM
      1 PG          3.2140    0.6696   -6.6870 P.3       1 ATP        -1.1921
      2 O1G         4.4321    1.5840   -6.6102 O.co2     1 ATP         0.3195
      3 O2G         2.4343    0.7689   -7.9939 O.co2     1 ATP         0.3195
      4 O3G         2.3423    0.6814   -5.4356 O.co2     1 ATP         0.3195
      5 PB          4.7930   -1.6123   -5.6130 P.3       1 ATP        -1.1062
      6 O1B         4.9599   -3.0559   -6.0324 O.co2     1 ATP         0.3195
      7 O2B         5.9917   -0.7402   -5.3134 O.co2     1 ATP         0.3195
      8 O3B         3.8502   -0.8518   -6.7093 O.3       1 ATP         0.4672
      9 PA          3.9665   -2.1124   -2.8163 P.3       1 ATP        -1.1062
     10 O1A         5.0486   -1.2960   -2.1438 O.co2     1 ATP         0.3195
     11 O2A         4.0512   -3.6227   -2.8595 O.co2     1 ATP         0.3195
     12 O3A         3.7733   -1.5533   -4.3394 O.3       1 ATP         0.4672
     13 O5'         2.5245   -1.6648   -2.1878 O.3       1 ATP         0.1618
     14 C5'         2.2816   -0.2918   -1.9206 C.3       1 ATP         0.1504
     15 C4'         2.7248    0.0226   -0.4980 C.3       1 ATP         0.1111
     16 O4'         2.4697    1.4219   -0.2462 O.3       1 ATP        -0.1436
     17 C3'         1.9404   -0.7419    0.5596 C.3       1 ATP         0.1111
     18 O3'         2.7418   -0.8086    1.7389 O.3       1 ATP        -0.2728
     19 C2'         0.7477    0.1630    0.7858 C.3       1 ATP         0.1111
     20 O2'         0.1373   -0.0577    2.0407 O.3       1 ATP        -0.2728
     21 C1'         1.3733    1.5427    0.6747 C.3       1 ATP         0.2693
     22 N9          0.4520    2.5240    0.1767 N.pl3     1 ATP        -0.3222
     23 C8          0.1798    2.8712   -1.2933 C.ar      1 ATP         0.1640
     24 N7         -0.7494    3.8400   -1.3610 N.2       1 ATP        -0.1640
     25 C5         -1.0173    4.0603   -0.0358 C.ar      1 ATP         0.0820
     26 C6         -2.0105    5.0717    0.4241 C.ar      1 ATP         0.1640
     27 N6         -2.6723    5.7982   -0.4628 N.pl3     1 ATP        -0.4916
     28 N1         -2.1445    5.1522    1.7502 N.pl3     1 ATP        -0.4390
     29 C2         -1.3755    4.3143    2.6427 C.ar      1 ATP         0.5691
     30 N3         -0.5075    3.4292    2.2616 N.ar      1 ATP        -0.4283
     31 C4         -0.3667    3.3425    0.9070 C.ar      1 ATP         0.2226
     32 H5'1        2.8432    0.3119   -2.6398 H         1 ATP        -0.0393
     33 H5'2        1.2128   -0.0927   -2.0428 H         1 ATP        -0.0393
     34 H4'         3.8040   -0.1399   -0.4044 H         1 ATP        -0.0393
     35 H3'         1.6768   -1.7637    0.2732 H         1 ATP        -0.0393
     36 HO3'        2.2231   -1.2979    2.3952 H         1 ATP         0.2010
     37 H2'         0.0002   -0.0084   -0.0014 H         1 ATP        -0.0393
     38 HO2'       -0.6132    0.5577    2.1063 H         1 ATP         0.2010
     39 H1'         1.7718    1.9211    1.6015 H         1 ATP        -0.0393
     40 H8          0.6089    2.4651   -2.2147 H         1 ATP         0.0000
     41 HN61       -2.5055    5.6680   -1.4503 H         1 ATP         0.2048
     42 HN62       -3.3462    6.4841   -0.1542 H         1 ATP         0.2048
     43 H2         -1.5932    4.4937    3.7066 H         1 ATP        -0.1292
     44 H44        -2.8098    5.8270    2.1160 H         1 ATP         0.2048
@<TRIPOS>BOND
     1    1    2 2
     2    1    3 1
     3    1    4 1
     4    1    8 1
     5    5    6 2
     6    5    7 1
     7    5    8 1
     8    5   12 1
     9    9   10 2
    10    9   11 1
    11    9   12 1
    12    9   13 1
    13   13   14 1
    14   14   15 1
    15   14   32 1
    16   14   33 1
    17   15   16 1
    18   15   17 1
    19   15   34 1
    20   16   21 1
    21   17   18 1
    22   17   19 1
    23   17   35 1
    24   18   36 1
    25   19   20 1
    26   19   21 1
    27   19   37 1
    28   20   38 1
    29   21   22 1
    30   21   39 1
    31   22   23 ar
    32   22   31 ar
    33   23   24 ar
    34   23   40 1
    35   24   25 ar
    36   25   26 ar
    37   25   31 ar
    38   26   27 1
    39   26   28 ar
    40   27   41 1
    41   27   42 1
    42   28   29 ar
    43   28   44 1
    44   29   30 ar
    45   29   43 1
    46   30   31 ar
@<TRIPOS>SUBSTRUCTURE
     1 ATP         1 GROUP 0 A     ****
@<TRIPOS>MOLECULE
[[[5-(6-amino-1,8-dihydropurine-6,8-diylium-7-id-9-yl)-3,4-dihydroxy-tetrahydrofuran-2-yl]methoxy-oxido-phosphoryl]oxy-oxido-phosphoryl] phosphate
   44    46     1     0     0
SMALL
USER_CHARGES

@<TRIPOS>ATOM
      1 PG          1.8816   -2.6558   -8.0209 P.3       1 ATP        -1.1921
      2 O1G         2.9035   -2.1825   -9.0493 O.co2     1 ATP         0.3195
      3 O2G         1.6092   -4.1560   -8.0492 O.co2     1 ATP         0.3195
      4 O3G         0.6264   -1.7930   -7.9426 O.co2     1 ATP         0.3195
      5 PB          3.1824   -1.0247   -5.8992 P.3       1 ATP        -1.1062
      6 O1B         4.3552   -0.5286   -6.7153 O.co2     1 ATP         0.3195
      7 O2B         2.0083   -0.1239   -5.5874 O.co2     1 ATP         0.3195
      8 O3B         2.6224   -2.4057   -6.5689 O.3       1 ATP         0.4672
      9 PA          4.4792   -0.9077   -3.2423 P.3       1 ATP        -1.1062
     10 O1A         5.6449   -0.1045   -3.7768 O.co2     1 ATP         0.3195
     11 O2A         4.6794   -1.9165   -2.1322 O.co2     1 ATP         0.3195
     12 O3A         3.7467   -1.6495   -4.5004 O.3       1 ATP         0.4672
     13 O5'         3.2903    0.1346   -2.8241 O.3       1 ATP         0.1618
     14 C5'         2.2816   -0.2918   -1.9206 C.3       1 ATP         0.1504
     15 C4'         2.7248    0.0226   -0.4980 C.3       1 ATP         0.1111
     16 O4'         2.4697    1.4219   -0.2462 O.3       1 ATP        -0.1436
     17 C3'         1.9404   -0.7419    0.5596 C.3       1 ATP         0.1111
     18 O3'         2.7418   -0.8086    1.7389 O.3       1 ATP        -0.2728
     19 C2'         0.7477    0.1630    0.7858 C.3       1 ATP         0.1111
     20 O2'         0.1373   -0.0577    2.0407 O.3       1 ATP        -0.2728
     21 C1'         1.3733    1.5427    0.6747 C.3       1 ATP         0.2693
     22 N9          0.4520    2.5240    0.1767 N.pl3     1 ATP        -0.3222
     23 C8          0.1798    2.8712   -1.2933 C.ar      1 ATP         0.1640
     24 N7         -0.7494    3.8400   -1.3610 N.2       1 ATP        -0.1640
     25 C5         -1.0173    4.0603   -0.0358 C.ar      1 ATP         0.0820
     26 C6         -2.0105    5.0717    0.4241 C.ar      1 ATP         0.1640
     27 N6         -2.6723    5.7982   -0.4628 N.pl3     1 ATP        -0.4916
     28 N1         -2.1445    5.1522    1.7502 N.pl3     1 ATP        -0.4390
     29 C2         -1.3755    4.3143    2.6427 C.ar      1 ATP         0.5691
     30 N3         -0.5075    3.4292    2.2616 N.ar      1 ATP        -0.4283
     31 C4         -0.3667    3.3425    0.9070 C.ar      1 ATP         0.2226
     32 H5'1        1.3514    0.2330   -2.1577 H         1 ATP        -0.0393
     33 H5'2        2.1280   -1.3678   -2.0460 H         1 ATP        -0.0393
     34 H4'         3.8040   -0.1399   -0.4044 H         1 ATP        -0.0393
     35 H3'         1.6768   -1.7637    0.2732 H         1 ATP        -0.0393
     36 HO3'        2.2231   -1.2979    2.3952 H         1 ATP         0.2010
     37 H2'         0.0002   -0.0084   -0.0014 H         1 ATP        -0.0393
     38 HO2'       -0.6132    0.5577    2.1063 H         1 ATP         0.2010
     39 H1'         1.7718    1.9211    1.6015 H         1 ATP        -0.0393
     40 H8          0.6089    2.4651   -2.2147 H         1 ATP         0.0000
     41 HN61       -2.5055    5.6680   -1.4503 H         1 ATP         0.2048
     42 HN62       -3.3462    6.4841   -0.1542 H         1 ATP         0.2048
     43 H2         -1.5932    4.4937    3.7066 H         1 ATP        -0.1292
     44 H44        -2.8098    5.8270    2.1160 H         1 ATP         0.2048
@<TRIPOS>BOND
     1    1    2 2
     2    1    3 1
     3    1    4 1
     4    1    8 1
     5    5    6 2
     6    5    7 1
     7    5    8 1
     8    5   12 1
     9    9   10 2
    10    9   11 1
    11    9   12 1
    12    9   13 1
    13   13   14 1
    14   14   15 1
    15   14   32 1
    16   14   33 1
    17   15   16 1
    18   15   17 1
    19   15   34 1
    20   16   21 1
    21   17   18 1
    22   17   19 1
    23   17   35 1
    24   18   36 1
    25   19   20 1
    26   19   21 1
    27   19   37 1
    28   20   38 1
    29   21   22 1
    30   21   39 1
    31   22   23 ar
    32   22   31 ar
    33   23   24 ar
    34   23   40 1
    35   24   25 ar
    36   25   26 ar
    37   25   31 ar
    38   26   27 1
    39   26   28 ar
    40   27   41 1
    41   27   42 1
    42   28   29 ar
    43   28   44 1
    44   29   30 ar
    45   29   43 1
    46   30   31 ar
@<TRIPOS>SUBSTRUCTURE
     1 ATP         1 GROUP 0 A     ****
@<TRIPOS>MOLECULE
[[[5-(6-amino-1,8-dihydropurine-6,8-diylium-7-id-9-yl)-3,4-dihydroxy-tetrahydrofuran-2-yl]methoxy-oxido-phosphoryl]oxy-oxido-phosphoryl] phosphate
   44    46     1     0     0
SMALL
USER_CHARGES

@<TRIPOS>ATOM
      1 PG          5.9377    5.1346    0.2165 P.3       1 ATP        -1.1921
      2 O1G         4.8042    6.1083    0.5213 O.co2     1 ATP         0.3195
      3 O2G         6.4964    4.4167    1.4404 O.co2     1 ATP         0.3195
      4 O3G         7.0024    5.6880   -0.7249 O.co2     1 ATP         0.3195
      5 PB          4.4263    4.0139   -2.0887 P.3       1 ATP        -1.1062
      6 O1B         3.1486    4.7997   -1.8948 O.co2     1 ATP         0.3195
      7 O2B         5.4131    4.3790   -3.1750 O.co2     1 ATP         0.3195
      8 O3B         5.2189    3.9382   -0.6620 O.3       1 ATP         0.4672
      9 PA          3.2351    1.6560   -3.4214 P.3       1 ATP        -1.1062
     10 O1A         4.0724    1.6996   -4.6810 O.co2     1 ATP         0.3195
     11 O2A         1.8026    2.1439   -3.4277 O.co2     1 ATP         0.3195
     12 O3A         4.0492    2.4323   -2.2364 O.3       1 ATP         0.4672
     13 O5'         3.2903    0.1346   -2.8241 O.3       1 ATP         0.1618
     14 C5'         2.2816   -0.2918   -1.9206 C.3       1 ATP         0.1504
     15 C4'         2.7248    0.0226   -0.4980 C.3       1 ATP         0.1111
     16 O4'         2.4697    1.4219   -0.2462 O.3       1 ATP        -0.1436
     17 C3'         1.9404   -0.7419    0.5596 C.3       1 ATP         0.1111
     18 O3'         2.7418   -0.8086    1.7389 O.3       1 ATP        -0.2728
     19 C2'         0.7477    0.1630    0.7858 C.3       1 ATP         0.1111
     20 O2'         0.1373   -0.0577    2.0407 O.3       1 ATP        -0.2728
     21 C1'         1.3733    1.5427    0.6747 C.3       1 ATP         0.2693
     22 N9          0.4520    2.5240    0.1767 N.pl3     1 ATP        -0.3222
     23 C8         -0.7463    2.2774   -0.7501 C.ar      1 ATP         0.1640
     24 N7         -1.3714    3.4419   -0.9948 N.2       1 ATP        -0.1640
     25 C5         -0.6104    4.3223   -0.2723 C.ar      1 ATP         0.0820
     26 C6         -0.9062    5.7820   -0.2194 C.ar      1 ATP         0.1640
     27 N6         -1.9385    6.2713   -0.8881 N.pl3     1 ATP        -0.4916
     28 N1         -0.0613    6.4906    0.5336 N.pl3     1 ATP        -0.4390
     29 C2          1.0416    5.8662    1.2291 C.ar      1 ATP         0.5691
     30 N3          1.3146    4.5989    1.1954 N.ar      1 ATP        -0.4283
     31 C4          0.4541    3.8697    0.4273 C.ar      1 ATP         0.2226
     32 H5'1        1.3514    0.2330   -2.1577 H         1 ATP        -0.0393
     33 H5'2        2.1280   -1.3678   -2.0460 H         1 ATP        -0.0393
     34 H4'         3.8040   -0.1399   -0.4044 H         1 ATP        -0.0393
     35 H3'         1.6768   -1.7637    0.2732 H         1 ATP        -0.0393
     36 HO3'        2.2231   -1.2979    2.3952 H         1 ATP         0.2010
     37 H2'         0.0002   -0.0084   -0.0014 H         1 ATP        -0.0393
     38 HO2'       -0.6132    0.5577    2.1063 H         1 ATP         0.2010
     39 H1'         1.7718    1.9211    1.6015 H         1 ATP        -0.0393
     40 H8         -1.1244    1.3534   -1.1987 H         1 ATP         0.0000
     41 HN61       -2.5259    5.6573   -1.4336 H         1 ATP         0.2048
     42 HN62       -2.1416    7.2600   -0.8539 H         1 ATP         0.2048
     43 H2          1.6509    6.5764    1.8088 H         1 ATP        -0.1292
     44 H44        -0.2190    7.4917    0.6033 H         1 ATP         0.2048
@<TRIPOS>BOND
     1    1    2 2
     2    1    3 1
     3    1    4 1
     4    1    8 1
     5    5    6 2
     6    5    7 1
     7    5    8 1
     8    5   12 1
     9    9   10 2
    10    9   11 1
    11    9   12 1
    12    9   13 1
    13   13   14 1
    14   14   15 1
    15   14   32 1
    16   14   33 1
    17   15   16 1
    18   15   17 1
    19   15   34 1
    20   16   21 1
    21   17   18 1
    22   17   19 1
    23   17   35 1
    24   18   36 1
    25   19   20 1
    26   19   21 1
    27   19   37 1
    28   20   38 1
    29   21   22 1
    30   21   39 1
    31   22   23 ar
    32   22   31 ar
    33   23   24 ar
    34   23   40 1
    35   24   25 ar
    36   25   26 ar
    37   25   31 ar
    38   26   27 1
    39   26   28 ar
    40   27   41 1
    41   27   42 1
    42   28   29 ar
    43   28   44 1
    44   29   30 ar
    45   29   43 1
    46   30   31 ar
@<TRIPOS>SUBSTRUCTURE
     1 ATP         1 GROUP 0 A     ****
@<TRIPOS>MOLECULE
[[[5-(6-amino-1,8-dihydropurine-6,8-diylium-7-id-9-yl)-3,4-dihydroxy-tetrahydrofuran-2-yl]methoxy-oxido-phosphoryl]oxy-oxido-phosphoryl] phosphate
   44    46     1     0     0
SMALL
USER_CHARGES

@<TRIPOS>ATOM
      1 PG          7.6150   -0.5217   -0.8267 P.3       1 ATP        -1.1921
      2 O1G         6.3410    0.2783   -0.5762 O.co2     1 ATP         0.3195
      3 O2G         8.1269   -1.2864    0.3893 O.co2     1 ATP         0.3195
      4 O3G         8.6948    0.2421   -1.5861 O.co2     1 ATP         0.3195
      5 PB          6.5122   -1.5789   -3.3802 P.3       1 ATP        -1.1062
      6 O1B         7.4068   -0.6952   -4.2205 O.co2     1 ATP         0.3195
      7 O2B         6.1079   -2.9580   -3.8513 O.co2     1 ATP         0.3195
      8 O3B         7.1516   -1.7015   -1.8817 O.3       1 ATP         0.4672
      9 PA          3.9556   -0.2056   -3.9568 P.3       1 ATP        -1.1062
     10 O1A         3.2059   -1.4054   -4.4936 O.co2     1 ATP         0.3195
     11 O2A         4.5101    0.8435   -4.8959 O.co2     1 ATP         0.3195
     12 O3A         5.1637   -0.7424   -2.9966 O.3       1 ATP         0.4672
     13 O5'         3.0213    0.5153   -2.8245 O.3       1 ATP         0.1618
     14 C5'         2.2816   -0.2918   -1.9206 C.3       1 ATP         0.1504
     15 C4'         2.7248    0.0226   -0.4980 C.3       1 ATP         0.1111
     16 O4'         2.4697    1.4219   -0.2462 O.3       1 ATP        -0.1436
     17 C3'         1.9404   -0.7419    0.5596 C.3       1 ATP         0.1111
     18 O3'         2.7418   -0.8086    1.7389 O.3       1 ATP        -0.2728
     19 C2'         0.7477    0.1630    0.7858 C.3       1 ATP         0.1111
     20 O2'         0.1373   -0.0577    2.0407 O.3       1 ATP        -0.2728
     21 C1'         1.3733    1.5427    0.6747 C.3       1 ATP         0.2693
     22 N9          0.4520    2.5240    0.1767 N.pl3     1 ATP        -0.3222
     23 C8         -0.3054    2.4845   -1.1576 C.ar      1 ATP         0.1640
     24 N7         -1.0755    3.5806   -1.2691 N.2       1 ATP        -0.1640
     25 C5         -0.8043    4.2306   -0.0942 C.ar      1 ATP         0.0820
     26 C6         -1.4324    5.5335    0.2646 C.ar      1 ATP         0.1640
     27 N6         -2.2885    6.1054   -0.5675 N.pl3     1 ATP        -0.4916
     28 N1         -1.0537    6.0229    1.4478 N.pl3     1 ATP        -0.4390
     29 C2         -0.1096    5.3242    2.2908 C.ar      1 ATP         0.5691
     30 N3          0.4468    4.1904    1.9960 N.ar      1 ATP        -0.4283
     31 C4          0.0631    3.6855    0.7877 C.ar      1 ATP         0.2226
     32 H5'1        1.2163   -0.0770   -2.0471 H         1 ATP        -0.0393
     33 H5'2        2.4655   -1.3443   -2.1563 H         1 ATP        -0.0393
     34 H4'         3.8040   -0.1399   -0.4044 H         1 ATP        -0.0393
     35 H3'         1.6768   -1.7637    0.2732 H         1 ATP        -0.0393
     36 HO3'        2.2231   -1.2979    2.3952 H         1 ATP         0.2010
     37 H2'         0.0002   -0.0084   -0.0014 H         1 ATP        -0.0393
     38 HO2'       -0.6132    0.5577    2.1063 H         1 ATP         0.2010
     39 H1'         1.7718    1.9211    1.6015 H         1 ATP        -0.0393
     40 H8         -0.2991    1.7413   -1.9611 H         1 ATP         0.0000
     41 HN61       -2.5167    5.6603   -1.4447 H         1 ATP         0.2048
     42 HN62       -2.7159    6.9882   -0.3270 H         1 ATP         0.2048
     43 H2          0.1059    5.8491    3.2340 H         1 ATP        -0.1292
     44 H44        -1.4532    6.9099    1.7401 H         1 ATP         0.2048
@<TRIPOS>BOND
     1    1    2 2
     2    1    3 1
     3    1    4 1
     4    1    8 1
     5    5    6 2
     6    5    7 1
     7    5    8 1
     8    5   12 1
     9    9   10 2
    10    9   11 1
    11    9   12 1
    12    9   13 1
    13   13   14 1
    14   14   15 1
    15   14   32 1
    16   14   33 1
    17   15   16 1
    18   15   17 1
    19   15   34 1
    20   16   21 1
    21   17   18 1
    22   17   19 1
    23   17   35 1
    24   18   36 1
    25   19   20 1
    26   19   21 1
    27   19   37 1
    28   20   38 1
    29   21   22 1
    30   21   39 1
    31   22   23 ar
    32   22   31 ar
    33   23   24 ar
    34   23   40 1
    35   24   25 ar
    36   25   26 ar
    37   25   31 ar
    38   26   27 1
    39   26   28 ar
    40   27   41 1
    41   27   42 1
    42   28   29 ar
    43   28   44 1
    44   29   30 ar
    45   29   43 1
    46   30   31 ar
@<TRIPOS>SUBSTRUCTURE
     1 ATP         1 GROUP 0 A     ****
@<TRIPOS>MOLECULE
[[[5-(6-amino-1,8-dihydropurine-6,8-diylium-7-id-9-yl)-3,4-dihydroxy-tetrahydrofuran-2-yl]methoxy-oxido-phosphoryl]oxy-oxido-phosphoryl] phosphate
   44    46     1     0     0
SMALL
USER_CHARGES

@<TRIPOS>ATOM
      1 PG         -4.7789   -6.2416    6.5801 P.3       1 ATP        -1.1921
      2 O1G        -5.1731   -7.7128    6.5037 O.co2     1 ATP         0.3195
      3 O2G        -3.7240   -5.9270    7.6356 O.co2     1 ATP         0.3195
      4 O3G        -5.9590   -5.2756    6.5673 O.co2     1 ATP         0.3195
      5 PB         -4.5710   -6.0885    3.6158 P.3       1 ATP        -1.1062
      6 O1B        -4.8249   -7.5497    3.3189 O.co2     1 ATP         0.3195
      7 O2B        -5.6432   -5.0458    3.3908 O.co2     1 ATP         0.3195
      8 O3B        -4.0169   -5.9513    5.1466 O.3       1 ATP         0.4672
      9 PA         -1.7206   -6.2776    2.8449 P.3       1 ATP        -1.1062
     10 O1A        -1.7877   -7.6349    2.1795 O.co2     1 ATP         0.3195
     11 O2A        -1.1371   -6.1247    4.2328 O.co2     1 ATP         0.3195
     12 O3A        -3.2178   -5.6235    2.8296 O.3       1 ATP         0.4672
     13 O5'        -0.9724   -5.2440    1.8220 O.3       1 ATP         0.1618
     14 C5'        -0.7840   -3.8935    2.2172 C.3       1 ATP         0.1504
     15 C4'        -0.0724   -3.1466    1.1027 C.3       1 ATP         0.1111
     16 O4'        -0.8674   -3.1929   -0.0945 O.3       1 ATP        -0.1436
     17 C3'         0.1338   -1.6715    1.4027 C.3       1 ATP         0.1111
     18 O3'         1.2893   -1.4445    2.1808 O.3       1 ATP        -0.2728
     19 C2'         0.2158   -1.0724    0.0128 C.3       1 ATP         0.1111
     20 O2'         1.5141   -1.2448   -0.5513 O.3       1 ATP        -0.2728
     21 C1'        -0.7897   -1.9176   -0.7583 C.3       1 ATP         0.2693
     22 N9         -2.1040   -1.3333   -0.7704 N.pl3     1 ATP        -0.3222
     23 C8         -3.2124   -1.5345    0.2719 C.ar      1 ATP         0.1640
     24 N7         -4.2964   -0.8234   -0.0828 N.2       1 ATP        -0.1640
     25 C5         -3.8754   -0.2386   -1.2478 C.ar      1 ATP         0.0820
     26 C6         -4.7432    0.6719   -2.0470 C.ar      1 ATP         0.1640
     27 N6         -5.9725    0.9415   -1.6366 N.pl3     1 ATP        -0.4916
     28 N1         -4.1703    1.1517   -3.1536 N.pl3     1 ATP        -0.4390
     29 C2         -2.8174    0.7994   -3.5215 C.ar      1 ATP         0.5691
     30 N3         -2.0475    0.0097   -2.8393 N.ar      1 ATP        -0.4283
     31 C4         -2.6278   -0.4836   -1.7071 C.ar      1 ATP         0.2226
     32 H5'1       -1.7618   -3.4448    2.4164 H         1 ATP        -0.0393
     33 H5'2       -0.1874   -3.8744    3.1341 H         1 ATP        -0.0393
     34 H4'         0.8871   -3.6466    0.8809 H         1 ATP        -0.0393
     35 H3'        -0.7370   -1.2334    1.9869 H         1 ATP        -0.0393
     36 HO3'        1.3407   -0.4871    2.3218 H         1 ATP         0.2010
     37 H2'        -0.0343   -0.0280    0.0196 H         1 ATP        -0.0393
     38 HO2'        2.1443   -0.7955    0.0378 H         1 ATP         0.2010
     39 H1'        -0.5175   -2.1046   -1.7826 H         1 ATP        -0.0393
     40 H8         -3.2310   -2.1319    1.1889 H         1 ATP         0.0000
     41 HN61       -6.3231    0.5316   -0.7829 H         1 ATP         0.2048
     42 HN62       -6.5628    1.5584   -2.1760 H         1 ATP         0.2048
     43 H2         -2.4822    1.2710   -4.4579 H         1 ATP        -0.1292
     44 H44        -4.7200    1.7780   -3.7346 H         1 ATP         0.2048
@<TRIPOS>BOND
     1    1    2 2
     2    1    3 1
     3    1    4 1
     4    1    8 1
     5    5    6 2
     6    5    7 1
     7    5    8 1
     8    5   12 1
     9    9   10 2
    10    9   11 1
    11    9   12 1
    12    9   13 1
    13   13   14 1
    14   14   15 1
    15   14   32 1
    16   14   33 1
    17   15   16 1
    18   15   17 1
    19   15   34 1
    20   16   21 1
    21   17   18 1
    22   17   19 1
    23   17   35 1
    24   18   36 1
    25   19   20 1
    26   19   21 1
    27   19   37 1
    28   20   38 1
    29   21   22 1
    30   21   39 1
    31   22   23 ar
    32   22   31 ar
    33   23   24 ar
    34   23   40 1
    35   24   25 ar
    36   25   26 ar
    37   25   31 ar
    38   26   27 1
    39   26   28 ar
    40   27   41 1
    41   27   42 1
    42   28   29 ar
    43   28   44 1
    44   29   30 ar
    45   29   43 1
    46   30   31 ar
@<TRIPOS>SUBSTRUCTURE
     1 ATP         1 GROUP 0 A     ****
@<TRIPOS>MOLECULE
[[[5-(6-amino-1,8-dihydropurine-6,8-diylium-7-id-9-yl)-3,4-dihydroxy-tetrahydrofuran-2-yl]methoxy-oxido-phosphoryl]oxy-oxido-phosphoryl] phosphate
   44    46     1     0     0
SMALL
USER_CHARGES

@<TRIPOS>ATOM
      1 PG         -2.3905   -3.0827   -2.1967 P.3       1 ATP        -1.1921
      2 O1G        -1.2504   -2.6810   -1.2668 O.co2     1 ATP         0.3195
      3 O2G        -3.7211   -2.4035   -1.8904 O.co2     1 ATP         0.3195
      4 O3G        -2.4965   -4.5837   -2.4452 O.co2     1 ATP         0.3195
      5 PB         -0.6299   -2.7736   -4.5755 P.3       1 ATP        -1.1062
      6 O1B        -0.5066   -4.2681   -4.7729 O.co2     1 ATP         0.3195
      7 O2B        -0.6231   -1.8248   -5.7532 O.co2     1 ATP         0.3195
      8 O3B        -1.9514   -2.4708   -3.6639 O.3       1 ATP         0.4672
      9 PA          2.1375   -2.2725   -3.6560 P.3       1 ATP        -1.1062
     10 O1A         2.5092   -1.2469   -4.7046 O.co2     1 ATP         0.3195
     11 O2A         2.6337   -3.6984   -3.7587 O.co2     1 ATP         0.3195
     12 O3A         0.5101   -2.2919   -3.5107 O.3       1 ATP         0.4672
     13 O5'         2.5245   -1.6648   -2.1878 O.3       1 ATP         0.1618
     14 C5'         2.2816   -0.2918   -1.9206 C.3       1 ATP         0.1504
     15 C4'         2.7248    0.0226   -0.4980 C.3       1 ATP         0.1111
     16 O4'         2.4697    1.4219   -0.2462 O.3       1 ATP        -0.1436
     17 C3'         1.9404   -0.7419    0.5596 C.3       1 ATP         0.1111
     18 O3'         2.7418   -0.8086    1.7389 O.3       1 ATP        -0.2728
     19 C2'         0.7477    0.1630    0.7858 C.3       1 ATP         0.1111
     20 O2'         0.1373   -0.0577    2.0407 O.3       1 ATP        -0.2728
     21 C1'         1.3733    1.5427    0.6747 C.3       1 ATP         0.2693
     22 N9          0.4520    2.5240    0.1767 N.pl3     1 ATP        -0.3222
     23 C8         -0.7463    2.2774   -0.7501 C.ar      1 ATP         0.1640
     24 N7         -1.3714    3.4419   -0.9948 N.2       1 ATP        -0.1640
     25 C5         -0.6104    4.3223   -0.2723 C.ar      1 ATP         0.0820
     26 C6         -0.9062    5.7820   -0.2194 C.ar      1 ATP         0.1640
     27 N6         -1.9385    6.2713   -0.8881 N.pl3     1 ATP        -0.4916
     28 N1         -0.0613    6.4906    0.5336 N.pl3     1 ATP        -0.4390
     29 C2          1.0416    5.8662    1.2291 C.ar      1 ATP         0.5691
     30 N3          1.3146    4.5989    1.1954 N.ar      1 ATP        -0.4283
     31 C4          0.4541    3.8697    0.4273 C.ar      1 ATP         0.2226
     32 H5'1        2.8432    0.3119   -2.6398 H         1 ATP        -0.0393
     33 H5'2        1.2128   -0.0927   -2.0428 H         1 ATP        -0.0393
     34 H4'         3.8040   -0.1399   -0.4044 H         1 ATP        -0.0393
     35 H3'         1.6768   -1.7637    0.2732 H         1 ATP        -0.0393
     36 HO3'        2.2231   -1.2979    2.3952 H         1 ATP         0.2010
     37 H2'         0.0002   -0.0084   -0.0014 H         1 ATP        -0.0393
     38 HO2'       -0.1554   -0.9852    2.0577 H         1 ATP         0.2010
     39 H1'         1.7718    1.9211    1.6015 H         1 ATP        -0.0393
     40 H8         -1.1244    1.3534   -1.1987 H         1 ATP         0.0000
     41 HN61       -2.5259    5.6573   -1.4336 H         1 ATP         0.2048
     42 HN62       -2.1416    7.2600   -0.8539 H         1 ATP         0.2048
     43 H2          1.6509    6.5764    1.8088 H         1 ATP        -0.1292
     44 H44        -0.2190    7.4917    0.6033 H         1 ATP         0.2048
@<TRIPOS>BOND
     1    1    2 2
     2    1    3 1
     3    1    4 1
     4    1    8 1
     5    5    6 2
     6    5    7 1
     7    5    8 1
     8    5   12 1
     9    9   10 2
    10    9   11 1
    11    9   12 1
    12    9   13 1
    13   13   14 1
    14   14   15 1
    15   14   32 1
    16   14   33 1
    17   15   16 1
    18   15   17 1
    19   15   34 1
    20   16   21 1
    21   17   18 1
    22   17   19 1
    23   17   35 1
    24   18   36 1
    25   19   20 1
    26   19   21 1
    27   19   37 1
    28   20   38 1
    29   21   22 1
    30   21   39 1
    31   22   23 ar
    32   22   31 ar
    33   23   24 ar
    34   23   40 1
    35   24   25 ar
    36   25   26 ar
    37   25   31 ar
    38   26   27 1
    39   26   28 ar
    40   27   41 1
    41   27   42 1
    42   28   29 ar
    43   28   44 1
    44   29   30 ar
    45   29   43 1
    46   30   31 ar
@<TRIPOS>SUBSTRUCTURE
     1 ATP         1 GROUP 0 A     ****
@<TRIPOS>MOLECULE
[[[5-(6-amino-1,8-dihydropurine-6,8-diylium-7-id-9-yl)-3,4-dihydroxy-tetrahydrofuran-2-yl]methoxy-oxido-phosphoryl]oxy-oxido-phosphoryl] phosphate
   44    46     1     0     0
SMALL
USER_CHARGES

@<TRIPOS>ATOM
      1 PG          1.2718   -2.8797   -7.6761 P.3       1 ATP        -1.1921
      2 O1G         1.7562   -4.3219   -7.5702 O.co2     1 ATP         0.3195
      3 O2G        -0.2185   -2.6955   -7.4103 O.co2     1 ATP         0.3195
      4 O3G         1.7855   -2.1352   -8.9041 O.co2     1 ATP         0.3195
      5 PB          3.5943   -1.9266   -6.0786 P.3       1 ATP        -1.1062
      6 O1B         4.1839   -3.2802   -5.7504 O.co2     1 ATP         0.3195
      7 O2B         4.2144   -1.0371   -7.1329 O.co2     1 ATP         0.3195
      8 O3B         2.0063   -2.1121   -6.4146 O.3       1 ATP         0.4672
      9 PA          2.7413    0.3775   -4.4298 P.3       1 ATP        -1.1062
     10 O1A         1.2503    0.2253   -4.6379 O.co2     1 ATP         0.3195
     11 O2A         3.5211    1.4416   -5.1712 O.co2     1 ATP         0.3195
     12 O3A         3.4474   -1.0719   -4.6954 O.3       1 ATP         0.4672
     13 O5'         3.0213    0.5153   -2.8245 O.3       1 ATP         0.1618
     14 C5'         2.2816   -0.2918   -1.9206 C.3       1 ATP         0.1504
     15 C4'         2.7248    0.0226   -0.4980 C.3       1 ATP         0.1111
     16 O4'         2.4697    1.4219   -0.2462 O.3       1 ATP        -0.1436
     17 C3'         1.9404   -0.7419    0.5596 C.3       1 ATP         0.1111
     18 O3'         2.7418   -0.8086    1.7389 O.3       1 ATP        -0.2728
     19 C2'         0.7477    0.1630    0.7858 C.3       1 ATP         0.1111
     20 O2'         0.1373   -0.0577    2.0407 O.3       1 ATP        -0.2728
     21 C1'         1.3733    1.5427    0.6747 C.3       1 ATP         0.2693
     22 N9          0.4520    2.5240    0.1767 N.pl3     1 ATP        -0.3222
     23 C8         -1.0660    2.5608    0.3999 C.ar      1 ATP         0.1640
     24 N7         -1.5852    3.6333   -0.2221 N.2       1 ATP        -0.1640
     25 C5         -0.4682    4.1996   -0.7771 C.ar      1 ATP         0.0820
     26 C6         -0.5216    5.4476   -1.5899 C.ar      1 ATP         0.1640
     27 N6         -1.6813    6.0510   -1.7982 N.pl3     1 ATP        -0.4916
     28 N1          0.6621    5.8575   -2.0523 N.pl3     1 ATP        -0.4390
     29 C2          1.8795    5.1301   -1.7717 C.ar      1 ATP         0.5691
     30 N3          1.9458    4.0434   -1.0670 N.ar      1 ATP        -0.4283
     31 C4          0.7388    3.6199   -0.5917 C.ar      1 ATP         0.2226
     32 H5'1        1.2163   -0.0770   -2.0471 H         1 ATP        -0.0393
     33 H5'2        2.4655   -1.3443   -2.1563 H         1 ATP        -0.0393
     34 H4'         3.8040   -0.1399   -0.4044 H         1 ATP        -0.0393
     35 H3'         1.6768   -1.7637    0.2732 H         1 ATP        -0.0393
     36 HO3'        2.2231   -1.2979    2.3952 H         1 ATP         0.2010
     37 H2'         0.0002   -0.0084   -0.0014 H         1 ATP        -0.0393
     38 HO2'       -0.1554   -0.9852    2.0577 H         1 ATP         0.2010
     39 H1'         1.7718    1.9211    1.6015 H         1 ATP        -0.0393
     40 H8         -1.7235    1.8833    0.9537 H         1 ATP         0.0000
     41 HN61       -2.5296    5.6672   -1.4072 H         1 ATP         0.2048
     42 HN62       -1.7205    6.8969   -2.3483 H         1 ATP         0.2048
     43 H2          2.7750    5.5878   -2.2190 H         1 ATP        -0.1292
     44 H44         0.6808    6.7046   -2.6128 H         1 ATP         0.2048
@<TRIPOS>BOND
     1    1    2 2
     2    1    3 1
     3    1    4 1
     4    1    8 1
     5    5    6 2
     6    5    7 1
     7    5    8 1
     8    5   12 1
     9    9   10 2
    10    9   11 1
    11    9   12 1
    12    9   13 1
    13   13   14 1
    14   14   15 1
    15   14   32 1
    16   14   33 1
    17   15   16 1
    18   15   17 1
    19   15   34 1
    20   16   21 1
    21   17   18 1
    22   17   19 1
    23   17   35 1
    24   18   36 1
    25   19   20 1
    26   19   21 1
    27   19   37 1
    28   20   38 1
    29   21   22 1
    30   21   39 1
    31   22   23 ar
    32   22   31 ar
    33   23   24 ar
    34   23   40 1
    35   24   25 ar
    36   25   26 ar
    37   25   31 ar
    38   26   27 1
    39   26   28 ar
    40   27   41 1
    41   27   42 1
    42   28   29 ar
    43   28   44 1
    44   29   30 ar
    45   29   43 1
    46   30   31 ar
@<TRIPOS>SUBSTRUCTURE
     1 ATP         1 GROUP 0 A     ****
@<TRIPOS>MOLECULE
[[[5-(6-amino-1,8-dihydropurine-6,8-diylium-7-id-9-yl)-3,4-dihydroxy-tetrahydrofuran-2-yl]methoxy-oxido-phosphoryl]oxy-oxido-phosphoryl] phosphate
   44    46     1     0     0
SMALL
USER_CHARGES

@<TRIPOS>ATOM
      1 PG          2.6489   -4.8604   -3.8718 P.3       1 ATP        -1.1921
      2 O1G         1.4842   -3.9310   -4.1967 O.co2     1 ATP         0.3195
      3 O2G         2.6247   -6.1863   -4.6248 O.co2     1 ATP         0.3195
      4 O3G         2.9482   -4.9919   -2.3821 O.co2     1 ATP         0.3195
      5 PB          4.5795   -2.6078   -4.1006 P.3       1 ATP        -1.1062
      6 O1B         4.7789   -2.5268   -2.6035 O.co2     1 ATP         0.3195
      7 O2B         5.7059   -2.2913   -5.0589 O.co2     1 ATP         0.3195
      8 O3B         3.9711   -4.0780   -4.4713 O.3       1 ATP         0.4672
      9 PA          3.0683   -0.0853   -4.4294 P.3       1 ATP        -1.1062
     10 O1A         1.6217    0.2192   -4.7522 O.co2     1 ATP         0.3195
     11 O2A         4.1890    0.5887   -5.1908 O.co2     1 ATP         0.3195
     12 O3A         3.2815   -1.7036   -4.5041 O.3       1 ATP         0.4672
     13 O5'         3.2903    0.1346   -2.8241 O.3       1 ATP         0.1618
     14 C5'         2.2816   -0.2918   -1.9206 C.3       1 ATP         0.1504
     15 C4'         2.7248    0.0226   -0.4980 C.3       1 ATP         0.1111
     16 O4'         2.4697    1.4219   -0.2462 O.3       1 ATP        -0.1436
     17 C3'         1.9404   -0.7419    0.5596 C.3       1 ATP         0.1111
     18 O3'         2.7418   -0.8086    1.7389 O.3       1 ATP        -0.2728
     19 C2'         0.7477    0.1630    0.7858 C.3       1 ATP         0.1111
     20 O2'         0.1373   -0.0577    2.0407 O.3       1 ATP        -0.2728
     21 C1'         1.3733    1.5427    0.6747 C.3       1 ATP         0.2693
     22 N9          0.4520    2.5240    0.1767 N.pl3     1 ATP        -0.3222
     23 C8         -1.0660    2.5608    0.3999 C.ar      1 ATP         0.1640
     24 N7         -1.5852    3.6333   -0.2221 N.2       1 ATP        -0.1640
     25 C5         -0.4682    4.1996   -0.7771 C.ar      1 ATP         0.0820
     26 C6         -0.5216    5.4476   -1.5899 C.ar      1 ATP         0.1640
     27 N6         -1.6813    6.0510   -1.7982 N.pl3     1 ATP        -0.4916
     28 N1          0.6621    5.8575   -2.0523 N.pl3     1 ATP        -0.4390
     29 C2          1.8795    5.1301   -1.7717 C.ar      1 ATP         0.5691
     30 N3          1.9458    4.0434   -1.0670 N.ar      1 ATP        -0.4283
     31 C4          0.7388    3.6199   -0.5917 C.ar      1 ATP         0.2226
     32 H5'1        1.3514    0.2330   -2.1577 H         1 ATP        -0.0393
     33 H5'2        2.1280   -1.3678   -2.0460 H         1 ATP        -0.0393
     34 H4'         3.8040   -0.1399   -0.4044 H         1 ATP        -0.0393
     35 H3'         1.6768   -1.7637    0.2732 H         1 ATP        -0.0393
     36 HO3'        2.2231   -1.2979    2.3952 H         1 ATP         0.2010
     37 H2'         0.0002   -0.0084   -0.0014 H         1 ATP        -0.0393
     38 HO2'       -0.1554   -0.9852    2.0577 H         1 ATP         0.2010
     39 H1'         1.7718    1.9211    1.6015 H         1 ATP        -0.0393
     40 H8         -1.7235    1.8833    0.9537 H         1 ATP         0.0000
     41 HN61       -2.5296    5.6672   -1.4072 H         1 ATP         0.2048
     42 HN62       -1.7205    6.8969   -2.3483 H         1 ATP         0.2048
     43 H2          2.7750    5.5878   -2.2190 H         1 ATP        -0.1292
     44 H44         0.6808    6.7046   -2.6128 H         1 ATP         0.2048
@<TRIPOS>BOND
     1    1    2 2
     2    1    3 1
     3    1    4 1
     4    1    8 1
     5    5    6 2
     6    5    7 1
     7    5    8 1
     8    5   12 1
     9    9   10 2
    10    9   11 1
    11    9   12 1
    12    9   13 1
    13   13   14 1
    14   14   15 1
    15   14   32 1
    16   14   33 1
    17   15   16 1
    18   15   17 1
    19   15   34 1
    20   16   21 1
    21   17   18 1
    22   17   19 1
    23   17   35 1
    24   18   36 1
    25   19   20 1
    26   19   21 1
    27   19   37 1
    28   20   38 1
    29   21   22 1
    30   21   39 1
    31   22   23 ar
    32   22   31 ar
    33   23   24 ar
    34   23   40 1
    35   24   25 ar
    36   25   26 ar
    37   25   31 ar
    38   26   27 1
    39   26   28 ar
    40   27   41 1
    41   27   42 1
    42   28   29 ar
    43   28   44 1
    44   29   30 ar
    45   29   43 1
    46   30   31 ar
@<TRIPOS>SUBSTRUCTURE
     1 ATP         1 GROUP 0 A     ****
@<TRIPOS>MOLECULE
[[[5-(6-amino-1,8-dihydropurine-6,8-diylium-7-id-9-yl)-3,4-dihydroxy-tetrahydrofuran-2-yl]methoxy-oxido-phosphoryl]oxy-oxido-phosphoryl] phosphate
   44    46     1     0     0
SMALL
USER_CHARGES

@<TRIPOS>ATOM
      1 PG          5.8686   -3.2861   -4.7245 P.3       1 ATP        -1.1921
      2 O1G         5.7000   -2.4015   -3.4937 O.co2     1 ATP         0.3195
      3 O2G         6.0562   -4.7673   -4.4137 O.co2     1 ATP         0.3195
      4 O3G         6.8414   -2.7362   -5.7624 O.co2     1 ATP         0.3195
      5 PB          3.5943   -1.9266   -6.0786 P.3       1 ATP        -1.1062
      6 O1B         4.5069   -1.1715   -7.0191 O.co2     1 ATP         0.3195
      7 O2B         2.2189   -2.3782   -6.5162 O.co2     1 ATP         0.3195
      8 O3B         4.4043   -3.2129   -5.4797 O.3       1 ATP         0.4672
      9 PA          2.7413    0.3775   -4.4298 P.3       1 ATP        -1.1062
     10 O1A         1.2503    0.2253   -4.6379 O.co2     1 ATP         0.3195
     11 O2A         3.5211    1.4416   -5.1712 O.co2     1 ATP         0.3195
     12 O3A         3.4474   -1.0719   -4.6954 O.3       1 ATP         0.4672
     13 O5'         3.0213    0.5153   -2.8245 O.3       1 ATP         0.1618
     14 C5'         2.2816   -0.2918   -1.9206 C.3       1 ATP         0.1504
     15 C4'         2.7248    0.0226   -0.4980 C.3       1 ATP         0.1111
     16 O4'         2.4697    1.4219   -0.2462 O.3       1 ATP        -0.1436
     17 C3'         1.9404   -0.7419    0.5596 C.3       1 ATP         0.1111
     18 O3'         2.7418   -0.8086    1.7389 O.3       1 ATP        -0.2728
     19 C2'         0.7477    0.1630    0.7858 C.3       1 ATP         0.1111
     20 O2'         0.1373   -0.0577    2.0407 O.3       1 ATP        -0.2728
     21 C1'         1.3733    1.5427    0.6747 C.3       1 ATP         0.2693
     22 N9          0.4520    2.5240    0.1767 N.pl3     1 ATP        -0.3222
     23 C8         -1.0660    2.5608    0.3999 C.ar      1 ATP         0.1640
     24 N7         -1.5852    3.6333   -0.2221 N.2       1 ATP        -0.1640
     25 C5         -0.4682    4.1996   -0.7771 C.ar      1 ATP         0.0820
     26 C6         -0.5216    5.4476   -1.5899 C.ar      1 ATP         0.1640
     27 N6         -1.6813    6.0510   -1.7982 N.pl3     1 ATP        -0.4916
     28 N1          0.6621    5.8575   -2.0523 N.pl3     1 ATP        -0.4390
     29 C2          1.8795    5.1301   -1.7717 C.ar      1 ATP         0.5691
     30 N3          1.9458    4.0434   -1.0670 N.ar      1 ATP        -0.4283
     31 C4          0.7388    3.6199   -0.5917 C.ar      1 ATP         0.2226
     32 H5'1        1.2163   -0.0770   -2.0471 H         1 ATP        -0.0393
     33 H5'2        2.4655   -1.3443   -2.1563 H         1 ATP        -0.0393
     34 H4'         3.8040   -0.1399   -0.4044 H         1 ATP        -0.0393
     35 H3'         1.6768   -1.7637    0.2732 H         1 ATP        -0.0393
     36 HO3'        2.2231   -1.2979    2.3952 H         1 ATP         0.2010
     37 H2'         0.0002   -0.0084   -0.0014 H         1 ATP        -0.0393
     38 HO2'       -0.1554   -0.9852    2.0577 H         1 ATP         0.2010
     39 H1'         1.7718    1.9211    1.6015 H         1 ATP        -0.0393
     40 H8         -1.7235    1.8833    0.9537 H         1 ATP         0.0000
     41 HN61       -2.5296    5.6672   -1.4072 H         1 ATP         0.2048
     42 HN62       -1.7205    6.8969   -2.3483 H         1 ATP         0.2048
     43 H2          2.7750    5.5878   -2.2190 H         1 ATP        -0.1292
     44 H44         0.6808    6.7046   -2.6128 H         1 ATP         0.2048
@<TRIPOS>BOND
     1    1    2 2
     2    1    3 1
     3    1    4 1
     4    1    8 1
     5    5    6 2
     6    5    7 1
     7    5    8 1
     8    5   12 1
     9    9   10 2
    10    9   11 1
    11    9   12 1
    12    9   13 1
    13   13   14 1
    14   14   15 1
    15   14   32 1
    16   14   33 1
    17   15   16 1
    18   15   17 1
    19   15   34 1
    20   16   21 1
    21   17   18 1
    22   17   19 1
    23   17   35 1
    24   18   36 1
    25   19   20 1
    26   19   21 1
    27   19   37 1
    28   20   38 1
    29   21   22 1
    30   21   39 1
    31   22   23 ar
    32   22   31 ar
    33   23   24 ar
    34   23   40 1
    35   24   25 ar
    36   25   26 ar
    37   25   31 ar
    38   26   27 1
    39   26   28 ar
    40   27   41 1
    41   27   42 1
    42   28   29 ar
    43   28   44 1
    44   29   30 ar
    45   29   43 1
    46   30   31 ar
@<TRIPOS>SUBSTRUCTURE
     1 ATP         1 GROUP 0 A     ****
@<TRIPOS>MOLECULE
[[[5-(6-amino-1,8-dihydropurine-6,8-diylium-7-id-9-yl)-3,4-dihydroxy-tetrahydrofuran-2-yl]methoxy-oxido-phosphoryl]oxy-oxido-phosphoryl] phosphate
   44    46     1     0     0
SMALL
USER_CHARGES

@<TRIPOS>ATOM
      1 PG         -0.9306   -1.5694   -5.7893 P.3       1 ATP        -1.1921
      2 O1G        -2.2971   -1.0213   -6.1866 O.co2     1 ATP         0.3195
      3 O2G        -0.4852   -2.7890   -6.5892 O.co2     1 ATP         0.3195
      4 O3G        -0.7206   -1.6971   -4.2842 O.co2     1 ATP         0.3195
      5 PB          0.2195    1.1748   -5.7563 P.3       1 ATP        -1.1062
      6 O1B         0.9437    1.9686   -6.8207 O.co2     1 ATP         0.3195
      7 O2B        -1.1353    1.6079   -5.2422 O.co2     1 ATP         0.3195
      8 O3B         0.1264   -0.3845   -6.2351 O.3       1 ATP         0.4672
      9 PA          2.7413    0.3775   -4.4298 P.3       1 ATP        -1.1062
     10 O1A         3.6560    1.3416   -5.1533 O.co2     1 ATP         0.3195
     11 O2A         2.7031   -1.0864   -4.8115 O.co2     1 ATP         0.3195
     12 O3A         1.2211    0.9740   -4.4828 O.3       1 ATP         0.4672
     13 O5'         3.0213    0.5153   -2.8245 O.3       1 ATP         0.1618
     14 C5'         2.2816   -0.2918   -1.9206 C.3       1 ATP         0.1504
     15 C4'         2.7248    0.0226   -0.4980 C.3       1 ATP         0.1111
     16 O4'         2.4697    1.4219   -0.2462 O.3       1 ATP        -0.1436
     17 C3'         1.9404   -0.7419    0.5596 C.3       1 ATP         0.1111
     18 O3'         2.7418   -0.8086    1.7389 O.3       1 ATP        -0.2728
     19 C2'         0.7477    0.1630    0.7858 C.3       1 ATP         0.1111
     20 O2'         0.1373   -0.0577    2.0407 O.3       1 ATP        -0.2728
     21 C1'         1.3733    1.5427    0.6747 C.3       1 ATP         0.2693
     22 N9          0.4520    2.5240    0.1767 N.pl3     1 ATP        -0.3222
     23 C8         -0.7463    2.2774   -0.7501 C.ar      1 ATP         0.1640
     24 N7         -1.3714    3.4419   -0.9948 N.2       1 ATP        -0.1640
     25 C5         -0.6104    4.3223   -0.2723 C.ar      1 ATP         0.0820
     26 C6         -0.9062    5.7820   -0.2194 C.ar      1 ATP         0.1640
     27 N6         -1.9385    6.2713   -0.8881 N.pl3     1 ATP        -0.4916
     28 N1         -0.0613    6.4906    0.5336 N.pl3     1 ATP        -0.4390
     29 C2          1.0416    5.8662    1.2291 C.ar      1 ATP         0.5691
     30 N3          1.3146    4.5989    1.1954 N.ar      1 ATP        -0.4283
     31 C4          0.4541    3.8697    0.4273 C.ar      1 ATP         0.2226
     32 H5'1        1.2163   -0.0770   -2.0471 H         1 ATP        -0.0393
     33 H5'2        2.4655   -1.3443   -2.1563 H         1 ATP        -0.0393
     34 H4'         3.8040   -0.1399   -0.4044 H         1 ATP        -0.0393
     35 H3'         1.6768   -1.7637    0.2732 H         1 ATP        -0.0393
     36 HO3'        2.2231   -1.2979    2.3952 H         1 ATP         0.2010
     37 H2'         0.0002   -0.0084   -0.0014 H         1 ATP        -0.0393
     38 HO2'       -0.1554   -0.9852    2.0577 H         1 ATP         0.2010
     39 H1'         1.7718    1.9211    1.6015 H         1 ATP        -0.0393
     40 H8         -1.1244    1.3534   -1.1987 H         1 ATP         0.0000
     41 HN61       -2.5259    5.6573   -1.4336 H         1 ATP         0.2048
     42 HN62       -2.1416    7.2600   -0.8539 H         1 ATP         0.2048
     43 H2          1.6509    6.5764    1.8088 H         1 ATP        -0.1292
     44 H44        -0.2190    7.4917    0.6033 H         1 ATP         0.2048
@<TRIPOS>BOND
     1    1    2 2
     2    1    3 1
     3    1    4 1
     4    1    8 1
     5    5    6 2
     6    5    7 1
     7    5    8 1
     8    5   12 1
     9    9   10 2
    10    9   11 1
    11    9   12 1
    12    9   13 1
    13   13   14 1
    14   14   15 1
    15   14   32 1
    16   14   33 1
    17   15   16 1
    18   15   17 1
    19   15   34 1
    20   16   21 1
    21   17   18 1
    22   17   19 1
    23   17   35 1
    24   18   36 1
    25   19   20 1
    26   19   21 1
    27   19   37 1
    28   20   38 1
    29   21   22 1
    30   21   39 1
    31   22   23 ar
    32   22   31 ar
    33   23   24 ar
    34   23   40 1
    35   24   25 ar
    36   25   26 ar
    37   25   31 ar
    38   26   27 1
    39   26   28 ar
    40   27   41 1
    41   27   42 1
    42   28   29 ar
    43   28   44 1
    44   29   30 ar
    45   29   43 1
    46   30   31 ar
@<TRIPOS>SUBSTRUCTURE
     1 ATP         1 GROUP 0 A     ****
@<TRIPOS>MOLECULE
[[[5-(6-amino-1,8-dihydropurine-6,8-diylium-7-id-9-yl)-3,4-dihydroxy-tetrahydrofuran-2-yl]methoxy-oxido-phosphoryl]oxy-oxido-phosphoryl] phosphate
   44    46     1     0     0
SMALL
USER_CHARGES

@<TRIPOS>ATOM
      1 PG          4.9524   -4.5692   -6.2411 P.3       1 ATP        -1.1921
      2 O1G         5.9121   -4.0413   -7.3022 O.co2     1 ATP         0.3195
      3 O2G         5.6214   -5.3763   -5.1335 O.co2     1 ATP         0.3195
      4 O3G         3.6866   -5.2076   -6.8036 O.co2     1 ATP         0.3195
      5 PB          3.5943   -1.9266   -6.0786 P.3       1 ATP        -1.1062
      6 O1B         4.5069   -1.1715   -7.0191 O.co2     1 ATP         0.3195
      7 O2B         2.2189   -2.3782   -6.5162 O.co2     1 ATP         0.3195
      8 O3B         4.4043   -3.2129   -5.4797 O.3       1 ATP         0.4672
      9 PA          2.7413    0.3775   -4.4298 P.3       1 ATP        -1.1062
     10 O1A         1.2503    0.2253   -4.6379 O.co2     1 ATP         0.3195
     11 O2A         3.5211    1.4416   -5.1712 O.co2     1 ATP         0.3195
     12 O3A         3.4474   -1.0719   -4.6954 O.3       1 ATP         0.4672
     13 O5'         3.0213    0.5153   -2.8245 O.3       1 ATP         0.1618
     14 C5'         2.2816   -0.2918   -1.9206 C.3       1 ATP         0.1504
     15 C4'         2.7248    0.0226   -0.4980 C.3       1 ATP         0.1111
     16 O4'         2.4697    1.4219   -0.2462 O.3       1 ATP        -0.1436
     17 C3'         1.9404   -0.7419    0.5596 C.3       1 ATP         0.1111
     18 O3'         2.7418   -0.8086    1.7389 O.3       1 ATP        -0.2728
     19 C2'         0.7477    0.1630    0.7858 C.3       1 ATP         0.1111
     20 O2'         0.1373   -0.0577    2.0407 O.3       1 ATP        -0.2728
     21 C1'         1.3733    1.5427    0.6747 C.3       1 ATP         0.2693
     22 N9          0.4520    2.5240    0.1767 N.pl3     1 ATP        -0.3222
     23 C8         -0.7463    2.2774   -0.7501 C.ar      1 ATP         0.1640
     24 N7         -1.3714    3.4419   -0.9948 N.2       1 ATP        -0.1640
     25 C5         -0.6104    4.3223   -0.2723 C.ar      1 ATP         0.0820
     26 C6         -0.9062    5.7820   -0.2194 C.ar      1 ATP         0.1640
     27 N6         -1.9385    6.2713   -0.8881 N.pl3     1 ATP        -0.4916
     28 N1         -0.0613    6.4906    0.5336 N.pl3     1 ATP        -0.4390
     29 C2          1.0416    5.8662    1.2291 C.ar      1 ATP         0.5691
     30 N3          1.3146    4.5989    1.1954 N.ar      1 ATP        -0.4283
     31 C4          0.4541    3.8697    0.4273 C.ar      1 ATP         0.2226
     32 H5'1        1.2163   -0.0770   -2.0471 H         1 ATP        -0.0393
     33 H5'2        2.4655   -1.3443   -2.1563 H         1 ATP        -0.0393
     34 H4'         3.8040   -0.1399   -0.4044 H         1 ATP        -0.0393
     35 H3'         1.6768   -1.7637    0.2732 H         1 ATP        -0.0393
     36 HO3'        2.2231   -1.2979    2.3952 H         1 ATP         0.2010
     37 H2'         0.0002   -0.0084   -0.0014 H         1 ATP        -0.0393
     38 HO2'       -0.6132    0.5577    2.1063 H         1 ATP         0.2010
     39 H1'         1.7718    1.9211    1.6015 H         1 ATP        -0.0393
     40 H8         -1.1244    1.3534   -1.1987 H         1 ATP         0.0000
     41 HN61       -2.5259    5.6573   -1.4336 H         1 ATP         0.2048
     42 HN62       -2.1416    7.2600   -0.8539 H         1 ATP         0.2048
     43 H2          1.6509    6.5764    1.8088 H         1 ATP        -0.1292
     44 H44        -0.2190    7.4917    0.6033 H         1 ATP         0.2048
@<TRIPOS>BOND
     1    1    2 2
     2    1    3 1
     3    1    4 1
     4    1    8 1
     5    5    6 2
     6    5    7 1
     7    5    8 1
     8    5   12 1
     9    9   10 2
    10    9   11 1
    11    9   12 1
    12    9   13 1
    13   13   14 1
    14   14   15 1
    15   14   32 1
    16   14   33 1
    17   15   16 1
    18   15   17 1
    19   15   34 1
    20   16   21 1
    21   17   18 1
    22   17   19 1
    23   17   35 1
    24   18   36 1
    25   19   20 1
    26   19   21 1
    27   19   37 1
    28   20   38 1
    29   21   22 1
    30   21   39 1
    31   22   23 ar
    32   22   31 ar
    33   23   24 ar
    34   23   40 1
    35   24   25 ar
    36   25   26 ar
    37   25   31 ar
    38   26   27 1
    39   26   28 ar
    40   27   41 1
    41   27   42 1
    42   28   29 ar
    43   28   44 1
    44   29   30 ar
    45   29   43 1
    46   30   31 ar
@<TRIPOS>SUBSTRUCTURE
     1 ATP         1 GROUP 0 A     ****
@<TRIPOS>MOLECULE
[[[5-(6-amino-1,8-dihydropurine-6,8-diylium-7-id-9-yl)-3,4-dihydroxy-tetrahydrofuran-2-yl]methoxy-oxido-phosphoryl]oxy-oxido-phosphoryl] phosphate
   44    46     1     0     0
SMALL
USER_CHARGES

@<TRIPOS>ATOM
      1 PG          2.3066    2.4667   -8.4560 P.3       1 ATP        -1.1921
      2 O1G         1.3629    3.6642   -8.4230 O.co2     1 ATP         0.3195
      3 O2G         3.7708    2.8257   -8.6860 O.co2     1 ATP         0.3195
      4 O3G         1.8079    1.2996   -9.3017 O.co2     1 ATP         0.3195
      5 PB          1.0152    1.3151   -6.0352 P.3       1 ATP        -1.1062
      6 O1B         0.0692    2.4593   -5.7462 O.co2     1 ATP         0.3195
      7 O2B         0.5215    0.0296   -6.6607 O.co2     1 ATP         0.3195
      8 O3B         2.2705    1.8799   -6.9151 O.3       1 ATP         0.4672
      9 PA          3.0683   -0.0853   -4.4294 P.3       1 ATP        -1.1062
     10 O1A         4.2833    0.4538   -5.1525 O.co2     1 ATP         0.3195
     11 O2A         2.5798   -1.4950   -4.6828 O.co2     1 ATP         0.3195
     12 O3A         1.8276    0.9511   -4.6666 O.3       1 ATP         0.4672
     13 O5'         3.2903    0.1346   -2.8241 O.3       1 ATP         0.1618
     14 C5'         2.2816   -0.2918   -1.9206 C.3       1 ATP         0.1504
     15 C4'         2.7248    0.0226   -0.4980 C.3       1 ATP         0.1111
     16 O4'         2.4697    1.4219   -0.2462 O.3       1 ATP        -0.1436
     17 C3'         1.9404   -0.7419    0.5596 C.3       1 ATP         0.1111
     18 O3'         2.7418   -0.8086    1.7389 O.3       1 ATP        -0.2728
     19 C2'         0.7477    0.1630    0.7858 C.3       1 ATP         0.1111
     20 O2'         0.1373   -0.0577    2.0407 O.3       1 ATP        -0.2728
     21 C1'         1.3733    1.5427    0.6747 C.3       1 ATP         0.2693
     22 N9          0.4520    2.5240    0.1767 N.pl3     1 ATP        -0.3222
     23 C8         -1.0247    2.3053   -0.1800 C.ar      1 ATP         0.1640
     24 N7         -1.5580    3.4612   -0.6116 N.2       1 ATP        -0.1640
     25 C5         -0.4873    4.3110   -0.5222 C.ar      1 ATP         0.0820
     26 C6         -0.5728    5.7505   -0.8981 C.ar      1 ATP         0.1640
     27 N6         -1.7163    6.2514   -1.3385 N.pl3     1 ATP        -0.4916
     28 N1          0.5667    6.4301   -0.7475 N.pl3     1 ATP        -0.4390
     29 C2          1.7697    5.7952   -0.2579 C.ar      1 ATP         0.5691
     30 N3          1.8633    4.5450    0.0742 N.ar      1 ATP        -0.4283
     31 C4          0.7014    3.8457   -0.0776 C.ar      1 ATP         0.2226
     32 H5'1        1.3514    0.2330   -2.1577 H         1 ATP        -0.0393
     33 H5'2        2.1280   -1.3678   -2.0460 H         1 ATP        -0.0393
     34 H4'         3.8040   -0.1399   -0.4044 H         1 ATP        -0.0393
     35 H3'         1.6768   -1.7637    0.2732 H         1 ATP        -0.0393
     36 HO3'        2.2231   -1.2979    2.3952 H         1 ATP         0.2010
     37 H2'         0.0002   -0.0084   -0.0014 H         1 ATP        -0.0393
     38 HO2'       -0.1554   -0.9852    2.0577 H         1 ATP         0.2010
     39 H1'         1.7718    1.9211    1.6015 H         1 ATP        -0.0393
     40 H8         -1.6458    1.4054   -0.1318 H         1 ATP         0.0000
     41 HN61       -2.5307    5.6598   -1.4199 H         1 ATP         0.2048
     42 HN62       -1.7773    7.2266   -1.5938 H         1 ATP         0.2048
     43 H2          2.6279    6.4808   -0.1872 H         1 ATP        -0.1292
     44 H44         0.5621    7.4166   -0.9900 H         1 ATP         0.2048
@<TRIPOS>BOND
     1    1    2 2
     2    1    3 1
     3    1    4 1
     4    1    8 1
     5    5    6 2
     6    5    7 1
     7    5    8 1
     8    5   12 1
     9    9   10 2
    10    9   11 1
    11    9   12 1
    12    9   13 1
    13   13   14 1
    14   14   15 1
    15   14   32 1
    16   14   33 1
    17   15   16 1
    18   15   17 1
    19   15   34 1
    20   16   21 1
    21   17   18 1
    22   17   19 1
    23   17   35 1
    24   18   36 1
    25   19   20 1
    26   19   21 1
    27   19   37 1
    28   20   38 1
    29   21   22 1
    30   21   39 1
    31   22   23 ar
    32   22   31 ar
    33   23   24 ar
    34   23   40 1
    35   24   25 ar
    36   25   26 ar
    37   25   31 ar
    38   26   27 1
    39   26   28 ar
    40   27   41 1
    41   27   42 1
    42   28   29 ar
    43   28   44 1
    44   29   30 ar
    45   29   43 1
    46   30   31 ar
@<TRIPOS>SUBSTRUCTURE
     1 ATP         1 GROUP 0 A     ****
@<TRIPOS>MOLECULE
[[[5-(6-amino-1,8-dihydropurine-6,8-diylium-7-id-9-yl)-3,4-dihydroxy-tetrahydrofuran-2-yl]methoxy-oxido-phosphoryl]oxy-oxido-phosphoryl] phosphate
   44    46     1     0     0
SMALL
USER_CHARGES

@<TRIPOS>ATOM
      1 PG          2.2744   -3.6229   -5.7375 P.3       1 ATP        -1.1921
      2 O1G         3.0067   -3.1393   -4.4902 O.co2     1 ATP         0.3195
      3 O2G         1.5599   -4.9596   -5.5689 O.co2     1 ATP         0.3195
      4 O3G         3.0839   -3.5037   -7.0245 O.co2     1 ATP         0.3195
      5 PB          1.1147   -0.9170   -6.1702 P.3       1 ATP        -1.1062
      6 O1B         2.0323   -0.6272   -7.3371 O.co2     1 ATP         0.3195
      7 O2B        -0.2924   -0.3646   -6.1245 O.co2     1 ATP         0.3195
      8 O3B         1.0530   -2.5330   -5.9383 O.3       1 ATP         0.4672
      9 PA          2.3343    0.9640   -4.2391 P.3       1 ATP        -1.1062
     10 O1A         1.0859    1.7599   -3.9264 O.co2     1 ATP         0.3195
     11 O2A         3.3965    1.5221   -5.1613 O.co2     1 ATP         0.3195
     12 O3A         1.8816   -0.5066   -4.7886 O.3       1 ATP         0.4672
     13 O5'         3.0213    0.5153   -2.8245 O.3       1 ATP         0.1618
     14 C5'         2.2816   -0.2918   -1.9206 C.3       1 ATP         0.1504
     15 C4'         2.7248    0.0226   -0.4980 C.3       1 ATP         0.1111
     16 O4'         2.4697    1.4219   -0.2462 O.3       1 ATP        -0.1436
     17 C3'         1.9404   -0.7419    0.5596 C.3       1 ATP         0.1111
     18 O3'         2.7418   -0.8086    1.7389 O.3       1 ATP        -0.2728
     19 C2'         0.7477    0.1630    0.7858 C.3       1 ATP         0.1111
     20 O2'         0.1373   -0.0577    2.0407 O.3       1 ATP        -0.2728
     21 C1'         1.3733    1.5427    0.6747 C.3       1 ATP         0.2693
     22 N9          0.4520    2.5240    0.1767 N.pl3     1 ATP        -0.3222
     23 C8         -0.7463    2.2774   -0.7501 C.ar      1 ATP         0.1640
     24 N7         -1.3714    3.4419   -0.9948 N.2       1 ATP        -0.1640
     25 C5         -0.6104    4.3223   -0.2723 C.ar      1 ATP         0.0820
     26 C6         -0.9062    5.7820   -0.2194 C.ar      1 ATP         0.1640
     27 N6         -1.9385    6.2713   -0.8881 N.pl3     1 ATP        -0.4916
     28 N1         -0.0613    6.4906    0.5336 N.pl3     1 ATP        -0.4390
     29 C2          1.0416    5.8662    1.2291 C.ar      1 ATP         0.5691
     30 N3          1.3146    4.5989    1.1954 N.ar      1 ATP        -0.4283
     31 C4          0.4541    3.8697    0.4273 C.ar      1 ATP         0.2226
     32 H5'1        1.2163   -0.0770   -2.0471 H         1 ATP        -0.0393
     33 H5'2        2.4655   -1.3443   -2.1563 H         1 ATP        -0.0393
     34 H4'         3.8040   -0.1399   -0.4044 H         1 ATP        -0.0393
     35 H3'         1.6768   -1.7637    0.2732 H         1 ATP        -0.0393
     36 HO3'        2.2231   -1.2979    2.3952 H         1 ATP         0.2010
     37 H2'         0.0002   -0.0084   -0.0014 H         1 ATP        -0.0393
     38 HO2'       -0.6132    0.5577    2.1063 H         1 ATP         0.2010
     39 H1'         1.7718    1.9211    1.6015 H         1 ATP        -0.0393
     40 H8         -1.1244    1.3534   -1.1987 H         1 ATP         0.0000
     41 HN61       -2.5259    5.6573   -1.4336 H         1 ATP         0.2048
     42 HN62       -2.1416    7.2600   -0.8539 H         1 ATP         0.2048
     43 H2          1.6509    6.5764    1.8088 H         1 ATP        -0.1292
     44 H44        -0.2190    7.4917    0.6033 H         1 ATP         0.2048
@<TRIPOS>BOND
     1    1    2 2
     2    1    3 1
     3    1    4 1
     4    1    8 1
     5    5    6 2
     6    5    7 1
     7    5    8 1
     8    5   12 1
     9    9   10 2
    10    9   11 1
    11    9   12 1
    12    9   13 1
    13   13   14 1
    14   14   15 1
    15   14   32 1
    16   14   33 1
    17   15   16 1
    18   15   17 1
    19   15   34 1
    20   16   21 1
    21   17   18 1
    22   17   19 1
    23   17   35 1
    24   18   36 1
    25   19   20 1
    26   19   21 1
    27   19   37 1
    28   20   38 1
    29   21   22 1
    30   21   39 1
    31   22   23 ar
    32   22   31 ar
    33   23   24 ar
    34   23   40 1
    35   24   25 ar
    36   25   26 ar
    37   25   31 ar
    38   26   27 1
    39   26   28 ar
    40   27   41 1
    41   27   42 1
    42   28   29 ar
    43   28   44 1
    44   29   30 ar
    45   29   43 1
    46   30   31 ar
@<TRIPOS>SUBSTRUCTURE
     1 ATP         1 GROUP 0 A     ****
@<TRIPOS>MOLECULE
[[[5-(6-amino-1,8-dihydropurine-6,8-diylium-7-id-9-yl)-3,4-dihydroxy-tetrahydrofuran-2-yl]methoxy-oxido-phosphoryl]oxy-oxido-phosphoryl] phosphate
   44    46     1     0     0
SMALL
USER_CHARGES

@<TRIPOS>ATOM
      1 PG          7.3145   -0.2736   -5.8327 P.3       1 ATP        -1.1921
      2 O1G         7.7419   -1.6181   -6.4120 O.co2     1 ATP         0.3195
      3 O2G         7.3301    0.8764   -6.8341 O.co2     1 ATP         0.3195
      4 O3G         7.9510    0.0592   -4.4873 O.co2     1 ATP         0.3195
      5 PB          4.9946   -1.5400   -4.4659 P.3       1 ATP        -1.1062
      6 O1B         5.1660   -2.9346   -5.0255 O.co2     1 ATP         0.3195
      7 O2B         5.3930   -1.2121   -3.0442 O.co2     1 ATP         0.3195
      8 O3B         5.7178   -0.4764   -5.4733 O.3       1 ATP         0.4672
      9 PA          2.7413    0.3775   -4.4298 P.3       1 ATP        -1.1062
     10 O1A         1.2503    0.2253   -4.6379 O.co2     1 ATP         0.3195
     11 O2A         3.5211    1.4416   -5.1712 O.co2     1 ATP         0.3195
     12 O3A         3.4474   -1.0719   -4.6954 O.3       1 ATP         0.4672
     13 O5'         3.0213    0.5153   -2.8245 O.3       1 ATP         0.1618
     14 C5'         2.2816   -0.2918   -1.9206 C.3       1 ATP         0.1504
     15 C4'         2.7248    0.0226   -0.4980 C.3       1 ATP         0.1111
     16 O4'         2.4697    1.4219   -0.2462 O.3       1 ATP        -0.1436
     17 C3'         1.9404   -0.7419    0.5596 C.3       1 ATP         0.1111
     18 O3'         2.7418   -0.8086    1.7389 O.3       1 ATP        -0.2728
     19 C2'         0.7477    0.1630    0.7858 C.3       1 ATP         0.1111
     20 O2'         0.1373   -0.0577    2.0407 O.3       1 ATP        -0.2728
     21 C1'         1.3733    1.5427    0.6747 C.3       1 ATP         0.2693
     22 N9          0.4520    2.5240    0.1767 N.pl3     1 ATP        -0.3222
     23 C8         -1.0660    2.5608    0.3999 C.ar      1 ATP         0.1640
     24 N7         -1.5852    3.6333   -0.2221 N.2       1 ATP        -0.1640
     25 C5         -0.4682    4.1996   -0.7771 C.ar      1 ATP         0.0820
     26 C6         -0.5216    5.4476   -1.5899 C.ar      1 ATP         0.1640
     27 N6         -1.6813    6.0510   -1.7982 N.pl3     1 ATP        -0.4916
     28 N1          0.6621    5.8575   -2.0523 N.pl3     1 ATP        -0.4390
     29 C2          1.8795    5.1301   -1.7717 C.ar      1 ATP         0.5691
     30 N3          1.9458    4.0434   -1.0670 N.ar      1 ATP        -0.4283
     31 C4          0.7388    3.6199   -0.5917 C.ar      1 ATP         0.2226
     32 H5'1        1.2163   -0.0770   -2.0471 H         1 ATP        -0.0393
     33 H5'2        2.4655   -1.3443   -2.1563 H         1 ATP        -0.0393
     34 H4'         3.8040   -0.1399   -0.4044 H         1 ATP        -0.0393
     35 H3'         1.6768   -1.7637    0.2732 H         1 ATP        -0.0393
     36 HO3'        2.2231   -1.2979    2.3952 H         1 ATP         0.2010
     37 H2'         0.0002   -0.0084   -0.0014 H         1 ATP        -0.0393
     38 HO2'       -0.1554   -0.9852    2.0577 H         1 ATP         0.2010
     39 H1'         1.7718    1.9211    1.6015 H         1 ATP        -0.0393
     40 H8         -1.7235    1.8833    0.9537 H         1 ATP         0.0000
     41 HN61       -2.5296    5.6672   -1.4072 H         1 ATP         0.2048
     42 HN62       -1.7205    6.8969   -2.3483 H         1 ATP         0.2048
     43 H2          2.7750    5.5878   -2.2190 H         1 ATP        -0.1292
     44 H44         0.6808    6.7046   -2.6128 H         1 ATP         0.2048
@<TRIPOS>BOND
     1    1    2 2
     2    1    3 1
     3    1    4 1
     4    1    8 1
     5    5    6 2
     6    5    7 1
     7    5    8 1
     8    5   12 1
     9    9   10 2
    10    9   11 1
    11    9   12 1
    12    9   13 1
    13   13   14 1
    14   14   15 1
    15   14   32 1
    16   14   33 1
    17   15   16 1
    18   15   17 1
    19   15   34 1
    20   16   21 1
    21   17   18 1
    22   17   19 1
    23   17   35 1
    24   18   36 1
    25   19   20 1
    26   19   21 1
    27   19   37 1
    28   20   38 1
    29   21   22 1
    30   21   39 1
    31   22   23 ar
    32   22   31 ar
    33   23   24 ar
    34   23   40 1
    35   24   25 ar
    36   25   26 ar
    37   25   31 ar
    38   26   27 1
    39   26   28 ar
    40   27   41 1
    41   27   42 1
    42   28   29 ar
    43   28   44 1
    44   29   30 ar
    45   29   43 1
    46   30   31 ar
@<TRIPOS>SUBSTRUCTURE
     1 ATP         1 GROUP 0 A     ****
@<TRIPOS>MOLECULE
[[[5-(6-amino-1,8-dihydropurine-6,8-diylium-7-id-9-yl)-3,4-dihydroxy-tetrahydrofuran-2-yl]methoxy-oxido-phosphoryl]oxy-oxido-phosphoryl] phosphate
   44    46     1     0     0
SMALL
USER_CHARGES

@<TRIPOS>ATOM
      1 PG          8.0230   -1.1725    1.0954 P.3       1 ATP        -1.1921
      2 O1G         8.9178   -0.2233    0.3055 O.co2     1 ATP         0.3195
      3 O2G         7.4855   -0.5917    2.3990 O.co2     1 ATP         0.3195
      4 O3G         8.5705   -2.5905    1.2205 O.co2     1 ATP         0.3195
      5 PB          6.5441   -1.9199   -1.3762 P.3       1 ATP        -1.1062
      6 O1B         7.2287   -0.9575   -2.3210 O.co2     1 ATP         0.3195
      7 O2B         6.8834   -3.3937   -1.3778 O.co2     1 ATP         0.3195
      8 O3B         6.6844   -1.3496    0.1484 O.3       1 ATP         0.4672
      9 PA          3.9665   -2.1124   -2.8163 P.3       1 ATP        -1.1062
     10 O1A         3.9564   -3.6144   -2.9990 O.co2     1 ATP         0.3195
     11 O2A         4.3219   -1.1957   -3.9667 O.co2     1 ATP         0.3195
     12 O3A         4.9284   -1.7562   -1.5445 O.3       1 ATP         0.4672
     13 O5'         2.5245   -1.6648   -2.1878 O.3       1 ATP         0.1618
     14 C5'         2.2816   -0.2918   -1.9206 C.3       1 ATP         0.1504
     15 C4'         2.7248    0.0226   -0.4980 C.3       1 ATP         0.1111
     16 O4'         2.4697    1.4219   -0.2462 O.3       1 ATP        -0.1436
     17 C3'         1.9404   -0.7419    0.5596 C.3       1 ATP         0.1111
     18 O3'         2.7418   -0.8086    1.7389 O.3       1 ATP        -0.2728
     19 C2'         0.7477    0.1630    0.7858 C.3       1 ATP         0.1111
     20 O2'         0.1373   -0.0577    2.0407 O.3       1 ATP        -0.2728
     21 C1'         1.3733    1.5427    0.6747 C.3       1 ATP         0.2693
     22 N9          0.4520    2.5240    0.1767 N.pl3     1 ATP        -0.3222
     23 C8          0.1798    2.8712   -1.2933 C.ar      1 ATP         0.1640
     24 N7         -0.7494    3.8400   -1.3610 N.2       1 ATP        -0.1640
     25 C5         -1.0173    4.0603   -0.0358 C.ar      1 ATP         0.0820
     26 C6         -2.0105    5.0717    0.4241 C.ar      1 ATP         0.1640
     27 N6         -2.6723    5.7982   -0.4628 N.pl3     1 ATP        -0.4916
     28 N1         -2.1445    5.1522    1.7502 N.pl3     1 ATP        -0.4390
     29 C2         -1.3755    4.3143    2.6427 C.ar      1 ATP         0.5691
     30 N3         -0.5075    3.4292    2.2616 N.ar      1 ATP        -0.4283
     31 C4         -0.3667    3.3425    0.9070 C.ar      1 ATP         0.2226
     32 H5'1        2.8432    0.3119   -2.6398 H         1 ATP        -0.0393
     33 H5'2        1.2128   -0.0927   -2.0428 H         1 ATP        -0.0393
     34 H4'         3.8040   -0.1399   -0.4044 H         1 ATP        -0.0393
     35 H3'         1.6768   -1.7637    0.2732 H         1 ATP        -0.0393
     36 HO3'        2.2231   -1.2979    2.3952 H         1 ATP         0.2010
     37 H2'         0.0002   -0.0084   -0.0014 H         1 ATP        -0.0393
     38 HO2'       -0.1554   -0.9852    2.0577 H         1 ATP         0.2010
     39 H1'         1.7718    1.9211    1.6015 H         1 ATP        -0.0393
     40 H8          0.6089    2.4651   -2.2147 H         1 ATP         0.0000
     41 HN61       -2.5055    5.6680   -1.4503 H         1 ATP         0.2048
     42 HN62       -3.3462    6.4841   -0.1542 H         1 ATP         0.2048
     43 H2         -1.5932    4.4937    3.7066 H         1 ATP        -0.1292
     44 H44        -2.8098    5.8270    2.1160 H         1 ATP         0.2048
@<TRIPOS>BOND
     1    1    2 2
     2    1    3 1
     3    1    4 1
     4    1    8 1
     5    5    6 2
     6    5    7 1
     7    5    8 1
     8    5   12 1
     9    9   10 2
    10    9   11 1
    11    9   12 1
    12    9   13 1
    13   13   14 1
    14   14   15 1
    15   14   32 1
    16   14   33 1
    17   15   16 1
    18   15   17 1
    19   15   34 1
    20   16   21 1
    21   17   18 1
    22   17   19 1
    23   17   35 1
    24   18   36 1
    25   19   20 1
    26   19   21 1
    27   19   37 1
    28   20   38 1
    29   21   22 1
    30   21   39 1
    31   22   23 ar
    32   22   31 ar
    33   23   24 ar
    34   23   40 1
    35   24   25 ar
    36   25   26 ar
    37   25   31 ar
    38   26   27 1
    39   26   28 ar
    40   27   41 1
    41   27   42 1
    42   28   29 ar
    43   28   44 1
    44   29   30 ar
    45   29   43 1
    46   30   31 ar
@<TRIPOS>SUBSTRUCTURE
     1 ATP         1 GROUP 0 A     ****
@<TRIPOS>MOLECULE
[[[5-(6-amino-1,8-dihydropurine-6,8-diylium-7-id-9-yl)-3,4-dihydroxy-tetrahydrofuran-2-yl]methoxy-oxido-phosphoryl]oxy-oxido-phosphoryl] phosphate
   44    46     1     0     0
SMALL
USER_CHARGES

@<TRIPOS>ATOM
      1 PG         -6.0516   -6.5146    3.0539 P.3       1 ATP        -1.1921
      2 O1G        -5.2193   -6.3551    4.3218 O.co2     1 ATP         0.3195
      3 O2G        -7.3120   -5.6570    3.0167 O.co2     1 ATP         0.3195
      4 O3G        -6.2664   -7.9620    2.6239 O.co2     1 ATP         0.3195
      5 PB         -3.6089   -6.3342    1.3642 P.3       1 ATP        -1.1062
      6 O1B        -3.6233   -7.8142    1.0525 O.co2     1 ATP         0.3195
      7 O2B        -3.1108   -5.3257    0.3533 O.co2     1 ATP         0.3195
      8 O3B        -5.0993   -5.8873    1.8625 O.3       1 ATP         0.4672
      9 PA         -1.2298   -6.3297    3.1234 P.3       1 ATP        -1.1062
     10 O1A        -0.8462   -7.7349    2.7136 O.co2     1 ATP         0.3195
     11 O2A        -0.9723   -5.8371    4.5308 O.co2     1 ATP         0.3195
     12 O3A        -2.8087   -6.1043    2.7686 O.3       1 ATP         0.4672
     13 O5'        -0.5687   -5.2869    2.0510 O.3       1 ATP         0.1618
     14 C5'        -0.7840   -3.8935    2.2172 C.3       1 ATP         0.1504
     15 C4'        -0.0724   -3.1466    1.1027 C.3       1 ATP         0.1111
     16 O4'        -0.8674   -3.1929   -0.0945 O.3       1 ATP        -0.1436
     17 C3'         0.1338   -1.6715    1.4027 C.3       1 ATP         0.1111
     18 O3'         1.2893   -1.4445    2.1808 O.3       1 ATP        -0.2728
     19 C2'         0.2158   -1.0724    0.0128 C.3       1 ATP         0.1111
     20 O2'         1.5141   -1.2448   -0.5513 O.3       1 ATP        -0.2728
     21 C1'        -0.7897   -1.9176   -0.7583 C.3       1 ATP         0.2693
     22 N9         -2.1040   -1.3333   -0.7704 N.pl3     1 ATP        -0.3222
     23 C8         -3.2124   -1.5345    0.2719 C.ar      1 ATP         0.1640
     24 N7         -4.2964   -0.8234   -0.0828 N.2       1 ATP        -0.1640
     25 C5         -3.8754   -0.2386   -1.2478 C.ar      1 ATP         0.0820
     26 C6         -4.7432    0.6719   -2.0470 C.ar      1 ATP         0.1640
     27 N6         -5.9725    0.9415   -1.6366 N.pl3     1 ATP        -0.4916
     28 N1         -4.1703    1.1517   -3.1536 N.pl3     1 ATP        -0.4390
     29 C2         -2.8174    0.7994   -3.5215 C.ar      1 ATP         0.5691
     30 N3         -2.0475    0.0097   -2.8393 N.ar      1 ATP        -0.4283
     31 C4         -2.6278   -0.4836   -1.7071 C.ar      1 ATP         0.2226
     32 H5'1       -1.8598   -3.6968    2.1850 H         1 ATP        -0.0393
     33 H5'2       -0.3933   -3.5903    3.1931 H         1 ATP        -0.0393
     34 H4'         0.8871   -3.6466    0.8809 H         1 ATP        -0.0393
     35 H3'        -0.7370   -1.2334    1.9869 H         1 ATP        -0.0393
     36 HO3'        1.3407   -0.4871    2.3218 H         1 ATP         0.2010
     37 H2'        -0.0343   -0.0280    0.0196 H         1 ATP        -0.0393
     38 HO2'        2.1443   -0.7955    0.0378 H         1 ATP         0.2010
     39 H1'        -0.5175   -2.1046   -1.7826 H         1 ATP        -0.0393
     40 H8         -3.2310   -2.1319    1.1889 H         1 ATP         0.0000
     41 HN61       -6.3231    0.5316   -0.7829 H         1 ATP         0.2048
     42 HN62       -6.5628    1.5584   -2.1760 H         1 ATP         0.2048
     43 H2         -2.4822    1.2710   -4.4579 H         1 ATP        -0.1292
     44 H44        -4.7200    1.7780   -3.7346 H         1 ATP         0.2048
@<TRIPOS>BOND
     1    1    2 2
     2    1    3 1
     3    1    4 1
     4    1    8 1
     5    5    6 2
     6    5    7 1
     7    5    8 1
     8    5   12 1
     9    9   10 2
    10    9   11 1
    11    9   12 1
    12    9   13 1
    13   13   14 1
    14   14   15 1
    15   14   32 1
    16   14   33 1
    17   15   16 1
    18   15   17 1
    19   15   34 1
    20   16   21 1
    21   17   18 1
    22   17   19 1
    23   17   35 1
    24   18   36 1
    25   19   20 1
    26   19   21 1
    27   19   37 1
    28   20   38 1
    29   21   22 1
    30   21   39 1
    31   22   23 ar
    32   22   31 ar
    33   23   24 ar
    34   23   40 1
    35   24   25 ar
    36   25   26 ar
    37   25   31 ar
    38   26   27 1
    39   26   28 ar
    40   27   41 1
    41   27   42 1
    42   28   29 ar
    43   28   44 1
    44   29   30 ar
    45   29   43 1
    46   30   31 ar
@<TRIPOS>SUBSTRUCTURE
     1 ATP         1 GROUP 0 A     ****
@<TRIPOS>MOLECULE
[[[5-(6-amino-1,8-dihydropurine-6,8-diylium-7-id-9-yl)-3,4-dihydroxy-tetrahydrofuran-2-yl]methoxy-oxido-phosphoryl]oxy-oxido-phosphoryl] phosphate
   44    46     1     0     0
SMALL
USER_CHARGES

@<TRIPOS>ATOM
      1 PG          2.9492   -7.2556    5.9875 P.3       1 ATP        -1.1921
      2 O1G         3.9467   -6.3833    5.2325 O.co2     1 ATP         0.3195
      3 O2G         2.7788   -6.8880    7.4577 O.co2     1 ATP         0.3195
      4 O3G         3.1045   -8.7507    5.7300 O.co2     1 ATP         0.3195
      5 PB          0.9895   -7.0356    3.7593 P.3       1 ATP        -1.1062
      6 O1B         1.7684   -6.0655    2.8992 O.co2     1 ATP         0.3195
      7 O2B         0.9134   -8.5052    3.4102 O.co2     1 ATP         0.3195
      8 O3B         1.4929   -6.8880    5.3065 O.3       1 ATP         0.4672
      9 PA         -1.7206   -6.2776    2.8449 P.3       1 ATP        -1.1062
     10 O1A        -2.8668   -5.5424    3.5046 O.co2     1 ATP         0.3195
     11 O2A        -1.9499   -7.6006    2.1471 O.co2     1 ATP         0.3195
     12 O3A        -0.5285   -6.4645    3.9466 O.3       1 ATP         0.4672
     13 O5'        -0.9724   -5.2440    1.8220 O.3       1 ATP         0.1618
     14 C5'        -0.7840   -3.8935    2.2172 C.3       1 ATP         0.1504
     15 C4'        -0.0724   -3.1466    1.1027 C.3       1 ATP         0.1111
     16 O4'        -0.8674   -3.1929   -0.0945 O.3       1 ATP        -0.1436
     17 C3'         0.1338   -1.6715    1.4027 C.3       1 ATP         0.1111
     18 O3'         1.2893   -1.4445    2.1808 O.3       1 ATP        -0.2728
     19 C2'         0.2158   -1.0724    0.0128 C.3       1 ATP         0.1111
     20 O2'         1.5141   -1.2448   -0.5513 O.3       1 ATP        -0.2728
     21 C1'        -0.7897   -1.9176   -0.7583 C.3       1 ATP         0.2693
     22 N9         -2.1040   -1.3333   -0.7704 N.pl3     1 ATP        -0.3222
     23 C8         -3.2124   -1.5345    0.2719 C.ar      1 ATP         0.1640
     24 N7         -4.2964   -0.8234   -0.0828 N.2       1 ATP        -0.1640
     25 C5         -3.8754   -0.2386   -1.2478 C.ar      1 ATP         0.0820
     26 C6         -4.7432    0.6719   -2.0470 C.ar      1 ATP         0.1640
     27 N6         -5.9725    0.9415   -1.6366 N.pl3     1 ATP        -0.4916
     28 N1         -4.1703    1.1517   -3.1536 N.pl3     1 ATP        -0.4390
     29 C2         -2.8174    0.7994   -3.5215 C.ar      1 ATP         0.5691
     30 N3         -2.0475    0.0097   -2.8393 N.ar      1 ATP        -0.4283
     31 C4         -2.6278   -0.4836   -1.7071 C.ar      1 ATP         0.2226
     32 H5'1       -1.7618   -3.4448    2.4164 H         1 ATP        -0.0393
     33 H5'2       -0.1874   -3.8744    3.1341 H         1 ATP        -0.0393
     34 H4'         0.8871   -3.6466    0.8809 H         1 ATP        -0.0393
     35 H3'        -0.7370   -1.2334    1.9869 H         1 ATP        -0.0393
     36 HO3'        1.3407   -0.4871    2.3218 H         1 ATP         0.2010
     37 H2'        -0.0343   -0.0280    0.0196 H         1 ATP        -0.0393
     38 HO2'        2.1443   -0.7955    0.0378 H         1 ATP         0.2010
     39 H1'        -0.5175   -2.1046   -1.7826 H         1 ATP        -0.0393
     40 H8         -3.2310   -2.1319    1.1889 H         1 ATP         0.0000
     41 HN61       -6.3231    0.5316   -0.7829 H         1 ATP         0.2048
     42 HN62       -6.5628    1.5584   -2.1760 H         1 ATP         0.2048
     43 H2         -2.4822    1.2710   -4.4579 H         1 ATP        -0.1292
     44 H44        -4.7200    1.7780   -3.7346 H         1 ATP         0.2048
@<TRIPOS>BOND
     1    1    2 2
     2    1    3 1
     3    1    4 1
     4    1    8 1
     5    5    6 2
     6    5    7 1
     7    5    8 1
     8    5   12 1
     9    9   10 2
    10    9   11 1
    11    9   12 1
    12    9   13 1
    13   13   14 1
    14   14   15 1
    15   14   32 1
    16   14   33 1
    17   15   16 1
    18   15   17 1
    19   15   34 1
    20   16   21 1
    21   17   18 1
    22   17   19 1
    23   17   35 1
    24   18   36 1
    25   19   20 1
    26   19   21 1
    27   19   37 1
    28   20   38 1
    29   21   22 1
    30   21   39 1
    31   22   23 ar
    32   22   31 ar
    33   23   24 ar
    34   23   40 1
    35   24   25 ar
    36   25   26 ar
    37   25   31 ar
    38   26   27 1
    39   26   28 ar
    40   27   41 1
    41   27   42 1
    42   28   29 ar
    43   28   44 1
    44   29   30 ar
    45   29   43 1
    46   30   31 ar
@<TRIPOS>SUBSTRUCTURE
     1 ATP         1 GROUP 0 A     ****
@<TRIPOS>MOLECULE
[[[5-(6-amino-1,8-dihydropurine-6,8-diylium-7-id-9-yl)-3,4-dihydroxy-tetrahydrofuran-2-yl]methoxy-oxido-phosphoryl]oxy-oxido-phosphoryl] phosphate
   44    46     1     0     0
SMALL
USER_CHARGES

@<TRIPOS>ATOM
      1 PG          4.4013   -4.7658   -1.8649 P.3       1 ATP        -1.1921
      2 O1G         3.3033   -5.6616   -2.4287 O.co2     1 ATP         0.3195
      3 O2G         5.4618   -5.5044   -1.0554 O.co2     1 ATP         0.3195
      4 O3G         3.8909   -3.4871   -1.2088 O.co2     1 ATP         0.3195
      5 PB          4.6722   -3.3645   -4.4758 P.3       1 ATP        -1.1062
      6 O1B         5.8542   -2.9866   -5.3404 O.co2     1 ATP         0.3195
      7 O2B         3.4646   -4.0618   -5.0613 O.co2     1 ATP         0.3195
      8 O3B         5.2101   -4.2285   -3.1979 O.3       1 ATP         0.4672
      9 PA          3.4850   -0.6647   -4.2376 P.3       1 ATP        -1.1062
     10 O1A         2.1142   -1.0053   -4.7803 O.co2     1 ATP         0.3195
     11 O2A         4.4967    0.0648   -5.0945 O.co2     1 ATP         0.3195
     12 O3A         4.1684   -2.0364   -3.6709 O.3       1 ATP         0.4672
     13 O5'         3.2903    0.1346   -2.8241 O.3       1 ATP         0.1618
     14 C5'         2.2816   -0.2918   -1.9206 C.3       1 ATP         0.1504
     15 C4'         2.7248    0.0226   -0.4980 C.3       1 ATP         0.1111
     16 O4'         2.4697    1.4219   -0.2462 O.3       1 ATP        -0.1436
     17 C3'         1.9404   -0.7419    0.5596 C.3       1 ATP         0.1111
     18 O3'         2.7418   -0.8086    1.7389 O.3       1 ATP        -0.2728
     19 C2'         0.7477    0.1630    0.7858 C.3       1 ATP         0.1111
     20 O2'         0.1373   -0.0577    2.0407 O.3       1 ATP        -0.2728
     21 C1'         1.3733    1.5427    0.6747 C.3       1 ATP         0.2693
     22 N9          0.4520    2.5240    0.1767 N.pl3     1 ATP        -0.3222
     23 C8         -1.0660    2.5608    0.3999 C.ar      1 ATP         0.1640
     24 N7         -1.5852    3.6333   -0.2221 N.2       1 ATP        -0.1640
     25 C5         -0.4682    4.1996   -0.7771 C.ar      1 ATP         0.0820
     26 C6         -0.5216    5.4476   -1.5899 C.ar      1 ATP         0.1640
     27 N6         -1.6813    6.0510   -1.7982 N.pl3     1 ATP        -0.4916
     28 N1          0.6621    5.8575   -2.0523 N.pl3     1 ATP        -0.4390
     29 C2          1.8795    5.1301   -1.7717 C.ar      1 ATP         0.5691
     30 N3          1.9458    4.0434   -1.0670 N.ar      1 ATP        -0.4283
     31 C4          0.7388    3.6199   -0.5917 C.ar      1 ATP         0.2226
     32 H5'1        1.3514    0.2330   -2.1577 H         1 ATP        -0.0393
     33 H5'2        2.1280   -1.3678   -2.0460 H         1 ATP        -0.0393
     34 H4'         3.8040   -0.1399   -0.4044 H         1 ATP        -0.0393
     35 H3'         1.6768   -1.7637    0.2732 H         1 ATP        -0.0393
     36 HO3'        2.2231   -1.2979    2.3952 H         1 ATP         0.2010
     37 H2'         0.0002   -0.0084   -0.0014 H         1 ATP        -0.0393
     38 HO2'       -0.1554   -0.9852    2.0577 H         1 ATP         0.2010
     39 H1'         1.7718    1.9211    1.6015 H         1 ATP        -0.0393
     40 H8         -1.7235    1.8833    0.9537 H         1 ATP         0.0000
     41 HN61       -2.5296    5.6672   -1.4072 H         1 ATP         0.2048
     42 HN62       -1.7205    6.8969   -2.3483 H         1 ATP         0.2048
     43 H2          2.7750    5.5878   -2.2190 H         1 ATP        -0.1292
     44 H44         0.6808    6.7046   -2.6128 H         1 ATP         0.2048
@<TRIPOS>BOND
     1    1    2 2
     2    1    3 1
     3    1    4 1
     4    1    8 1
     5    5    6 2
     6    5    7 1
     7    5    8 1
     8    5   12 1
     9    9   10 2
    10    9   11 1
    11    9   12 1
    12    9   13 1
    13   13   14 1
    14   14   15 1
    15   14   32 1
    16   14   33 1
    17   15   16 1
    18   15   17 1
    19   15   34 1
    20   16   21 1
    21   17   18 1
    22   17   19 1
    23   17   35 1
    24   18   36 1
    25   19   20 1
    26   19   21 1
    27   19   37 1
    28   20   38 1
    29   21   22 1
    30   21   39 1
    31   22   23 ar
    32   22   31 ar
    33   23   24 ar
    34   23   40 1
    35   24   25 ar
    36   25   26 ar
    37   25   31 ar
    38   26   27 1
    39   26   28 ar
    40   27   41 1
    41   27   42 1
    42   28   29 ar
    43   28   44 1
    44   29   30 ar
    45   29   43 1
    46   30   31 ar
@<TRIPOS>SUBSTRUCTURE
     1 ATP         1 GROUP 0 A     ****
@<TRIPOS>MOLECULE
[[[5-(6-amino-1,8-dihydropurine-6,8-diylium-7-id-9-yl)-3,4-dihydroxy-tetrahydrofuran-2-yl]methoxy-oxido-phosphoryl]oxy-oxido-phosphoryl] phosphate
   44    46     1     0     0
SMALL
USER_CHARGES

@<TRIPOS>ATOM
      1 PG          5.5809    0.0800   -7.5608 P.3       1 ATP        -1.1921
      2 O1G         4.5328    0.7093   -8.4727 O.co2     1 ATP         0.3195
      3 O2G         6.5785    1.0713   -6.9712 O.co2     1 ATP         0.3195
      4 O3G         6.2154   -1.1896   -8.1190 O.co2     1 ATP         0.3195
      5 PB          3.4913   -1.5254   -6.1787 P.3       1 ATP        -1.1062
      6 O1B         2.2876   -0.9433   -6.8857 O.co2     1 ATP         0.3195
      7 O2B         4.0210   -2.8967   -6.5339 O.co2     1 ATP         0.3195
      8 O3B         4.7189   -0.4504   -6.2587 O.3       1 ATP         0.4672
      9 PA          2.1375   -2.2725   -3.6560 P.3       1 ATP        -1.1062
     10 O1A         2.4976   -3.7422   -3.6687 O.co2     1 ATP         0.3195
     11 O2A         0.7481   -1.8133   -4.0418 O.co2     1 ATP         0.3195
     12 O3A         3.2287   -1.4684   -4.5683 O.3       1 ATP         0.4672
     13 O5'         2.5245   -1.6648   -2.1878 O.3       1 ATP         0.1618
     14 C5'         2.2816   -0.2918   -1.9206 C.3       1 ATP         0.1504
     15 C4'         2.7248    0.0226   -0.4980 C.3       1 ATP         0.1111
     16 O4'         2.4697    1.4219   -0.2462 O.3       1 ATP        -0.1436
     17 C3'         1.9404   -0.7419    0.5596 C.3       1 ATP         0.1111
     18 O3'         2.7418   -0.8086    1.7389 O.3       1 ATP        -0.2728
     19 C2'         0.7477    0.1630    0.7858 C.3       1 ATP         0.1111
     20 O2'         0.1373   -0.0577    2.0407 O.3       1 ATP        -0.2728
     21 C1'         1.3733    1.5427    0.6747 C.3       1 ATP         0.2693
     22 N9          0.4520    2.5240    0.1767 N.pl3     1 ATP        -0.3222
     23 C8         -1.0660    2.5608    0.3999 C.ar      1 ATP         0.1640
     24 N7         -1.5852    3.6333   -0.2221 N.2       1 ATP        -0.1640
     25 C5         -0.4682    4.1996   -0.7771 C.ar      1 ATP         0.0820
     26 C6         -0.5216    5.4476   -1.5899 C.ar      1 ATP         0.1640
     27 N6         -1.6813    6.0510   -1.7982 N.pl3     1 ATP        -0.4916
     28 N1          0.6621    5.8575   -2.0523 N.pl3     1 ATP        -0.4390
     29 C2          1.8795    5.1301   -1.7717 C.ar      1 ATP         0.5691
     30 N3          1.9458    4.0434   -1.0670 N.ar      1 ATP        -0.4283
     31 C4          0.7388    3.6199   -0.5917 C.ar      1 ATP         0.2226
     32 H5'1        2.8432    0.3119   -2.6398 H         1 ATP        -0.0393
     33 H5'2        1.2128   -0.0927   -2.0428 H         1 ATP        -0.0393
     34 H4'         3.8040   -0.1399   -0.4044 H         1 ATP        -0.0393
     35 H3'         1.6768   -1.7637    0.2732 H         1 ATP        -0.0393
     36 HO3'        2.2231   -1.2979    2.3952 H         1 ATP         0.2010
     37 H2'         0.0002   -0.0084   -0.0014 H         1 ATP        -0.0393
     38 HO2'       -0.1554   -0.9852    2.0577 H         1 ATP         0.2010
     39 H1'         1.7718    1.9211    1.6015 H         1 ATP        -0.0393
     40 H8         -1.7235    1.8833    0.9537 H         1 ATP         0.0000
     41 HN61       -2.5296    5.6672   -1.4072 H         1 ATP         0.2048
     42 HN62       -1.7205    6.8969   -2.3483 H         1 ATP         0.2048
     43 H2          2.7750    5.5878   -2.2190 H         1 ATP        -0.1292
     44 H44         0.6808    6.7046   -2.6128 H         1 ATP         0.2048
@<TRIPOS>BOND
     1    1    2 2
     2    1    3 1
     3    1    4 1
     4    1    8 1
     5    5    6 2
     6    5    7 1
     7    5    8 1
     8    5   12 1
     9    9   10 2
    10    9   11 1
    11    9   12 1
    12    9   13 1
    13   13   14 1
    14   14   15 1
    15   14   32 1
    16   14   33 1
    17   15   16 1
    18   15   17 1
    19   15   34 1
    20   16   21 1
    21   17   18 1
    22   17   19 1
    23   17   35 1
    24   18   36 1
    25   19   20 1
    26   19   21 1
    27   19   37 1
    28   20   38 1
    29   21   22 1
    30   21   39 1
    31   22   23 ar
    32   22   31 ar
    33   23   24 ar
    34   23   40 1
    35   24   25 ar
    36   25   26 ar
    37   25   31 ar
    38   26   27 1
    39   26   28 ar
    40   27   41 1
    41   27   42 1
    42   28   29 ar
    43   28   44 1
    44   29   30 ar
    45   29   43 1
    46   30   31 ar
@<TRIPOS>SUBSTRUCTURE
     1 ATP         1 GROUP 0 A     ****
@<TRIPOS>MOLECULE
[[[5-(6-amino-1,8-dihydropurine-6,8-diylium-7-id-9-yl)-3,4-dihydroxy-tetrahydrofuran-2-yl]methoxy-oxido-phosphoryl]oxy-oxido-phosphoryl] phosphate
   44    46     1     0     0
SMALL
USER_CHARGES

@<TRIPOS>ATOM
      1 PG          4.7886    5.6683   -0.8468 P.3       1 ATP        -1.1921
      2 O1G         5.9185    6.1520   -1.7498 O.co2     1 ATP         0.3195
      3 O2G         3.7128    6.7134   -0.5709 O.co2     1 ATP         0.3195
      4 O3G         5.2570    4.9102    0.3908 O.co2     1 ATP         0.3195
      5 PB          4.5844    3.1240   -2.3760 P.3       1 ATP        -1.1062
      6 O1B         5.5948    3.4526   -3.4524 O.co2     1 ATP         0.3195
      7 O2B         4.9243    2.1795   -1.2448 O.co2     1 ATP         0.3195
      8 O3B         4.0169    4.5194   -1.7437 O.3       1 ATP         0.4672
      9 PA          2.9240    1.2545   -3.9582 P.3       1 ATP        -1.1062
     10 O1A         3.9586    1.1680   -5.0589 O.co2     1 ATP         0.3195
     11 O2A         1.4466    1.1841   -4.2781 O.co2     1 ATP         0.3195
     12 O3A         3.2095    2.6091   -3.0903 O.3       1 ATP         0.4672
     13 O5'         3.2903    0.1346   -2.8241 O.3       1 ATP         0.1618
     14 C5'         2.2816   -0.2918   -1.9206 C.3       1 ATP         0.1504
     15 C4'         2.7248    0.0226   -0.4980 C.3       1 ATP         0.1111
     16 O4'         2.4697    1.4219   -0.2462 O.3       1 ATP        -0.1436
     17 C3'         1.9404   -0.7419    0.5596 C.3       1 ATP         0.1111
     18 O3'         2.7418   -0.8086    1.7389 O.3       1 ATP        -0.2728
     19 C2'         0.7477    0.1630    0.7858 C.3       1 ATP         0.1111
     20 O2'         0.1373   -0.0577    2.0407 O.3       1 ATP        -0.2728
     21 C1'         1.3733    1.5427    0.6747 C.3       1 ATP         0.2693
     22 N9          0.4520    2.5240    0.1767 N.pl3     1 ATP        -0.3222
     23 C8          0.1798    2.8712   -1.2933 C.ar      1 ATP         0.1640
     24 N7         -0.7494    3.8400   -1.3610 N.2       1 ATP        -0.1640
     25 C5         -1.0173    4.0603   -0.0358 C.ar      1 ATP         0.0820
     26 C6         -2.0105    5.0717    0.4241 C.ar      1 ATP         0.1640
     27 N6         -2.6723    5.7982   -0.4628 N.pl3     1 ATP        -0.4916
     28 N1         -2.1445    5.1522    1.7502 N.pl3     1 ATP        -0.4390
     29 C2         -1.3755    4.3143    2.6427 C.ar      1 ATP         0.5691
     30 N3         -0.5075    3.4292    2.2616 N.ar      1 ATP        -0.4283
     31 C4         -0.3667    3.3425    0.9070 C.ar      1 ATP         0.2226
     32 H5'1        1.3514    0.2330   -2.1577 H         1 ATP        -0.0393
     33 H5'2        2.1280   -1.3678   -2.0460 H         1 ATP        -0.0393
     34 H4'         3.8040   -0.1399   -0.4044 H         1 ATP        -0.0393
     35 H3'         1.6768   -1.7637    0.2732 H         1 ATP        -0.0393
     36 HO3'        2.2231   -1.2979    2.3952 H         1 ATP         0.2010
     37 H2'         0.0002   -0.0084   -0.0014 H         1 ATP        -0.0393
     38 HO2'       -0.6132    0.5577    2.1063 H         1 ATP         0.2010
     39 H1'         1.7718    1.9211    1.6015 H         1 ATP        -0.0393
     40 H8          0.6089    2.4651   -2.2147 H         1 ATP         0.0000
     41 HN61       -2.5055    5.6680   -1.4503 H         1 ATP         0.2048
     42 HN62       -3.3462    6.4841   -0.1542 H         1 ATP         0.2048
     43 H2         -1.5932    4.4937    3.7066 H         1 ATP        -0.1292
     44 H44        -2.8098    5.8270    2.1160 H         1 ATP         0.2048
@<TRIPOS>BOND
     1    1    2 2
     2    1    3 1
     3    1    4 1
     4    1    8 1
     5    5    6 2
     6    5    7 1
     7    5    8 1
     8    5   12 1
     9    9   10 2
    10    9   11 1
    11    9   12 1
    12    9   13 1
    13   13   14 1
    14   14   15 1
    15   14   32 1
    16   14   33 1
    17   15   16 1
    18   15   17 1
    19   15   34 1
    20   16   21 1
    21   17   18 1
    22   17   19 1
    23   17   35 1
    24   18   36 1
    25   19   20 1
    26   19   21 1
    27   19   37 1
    28   20   38 1
    29   21   22 1
    30   21   39 1
    31   22   23 ar
    32   22   31 ar
    33   23   24 ar
    34   23   40 1
    35   24   25 ar
    36   25   26 ar
    37   25   31 ar
    38   26   27 1
    39   26   28 ar
    40   27   41 1
    41   27   42 1
    42   28   29 ar
    43   28   44 1
    44   29   30 ar
    45   29   43 1
    46   30   31 ar
@<TRIPOS>SUBSTRUCTURE
     1 ATP         1 GROUP 0 A     ****
@<TRIPOS>MOLECULE
[[[5-(6-amino-1,8-dihydropurine-6,8-diylium-7-id-9-yl)-3,4-dihydroxy-tetrahydrofuran-2-yl]methoxy-oxido-phosphoryl]oxy-oxido-phosphoryl] phosphate
   44    46     1     0     0
SMALL
USER_CHARGES

@<TRIPOS>ATOM
      1 PG          4.6982    1.1393   -5.9122 P.3       1 ATP        -1.1921
      2 O1G         5.3144    1.8574   -4.7162 O.co2     1 ATP         0.3195
      3 O2G         5.2894    1.5402   -7.2596 O.co2     1 ATP         0.3195
      4 O3G         3.1744    1.0799   -5.8899 O.co2     1 ATP         0.3195
      5 PB          4.8597   -1.4720   -4.4947 P.3       1 ATP        -1.1062
      6 O1B         5.3585   -2.8446   -4.8881 O.co2     1 ATP         0.3195
      7 O2B         5.2864   -0.8263   -3.1954 O.co2     1 ATP         0.3195
      8 O3B         5.1563   -0.4334   -5.7204 O.3       1 ATP         0.4672
      9 PA          2.1375   -2.2725   -3.6560 P.3       1 ATP        -1.1062
     10 O1A         2.4976   -3.7422   -3.6687 O.co2     1 ATP         0.3195
     11 O2A         0.7481   -1.8133   -4.0418 O.co2     1 ATP         0.3195
     12 O3A         3.2287   -1.4684   -4.5683 O.3       1 ATP         0.4672
     13 O5'         2.5245   -1.6648   -2.1878 O.3       1 ATP         0.1618
     14 C5'         2.2816   -0.2918   -1.9206 C.3       1 ATP         0.1504
     15 C4'         2.7248    0.0226   -0.4980 C.3       1 ATP         0.1111
     16 O4'         2.4697    1.4219   -0.2462 O.3       1 ATP        -0.1436
     17 C3'         1.9404   -0.7419    0.5596 C.3       1 ATP         0.1111
     18 O3'         2.7418   -0.8086    1.7389 O.3       1 ATP        -0.2728
     19 C2'         0.7477    0.1630    0.7858 C.3       1 ATP         0.1111
     20 O2'         0.1373   -0.0577    2.0407 O.3       1 ATP        -0.2728
     21 C1'         1.3733    1.5427    0.6747 C.3       1 ATP         0.2693
     22 N9          0.4520    2.5240    0.1767 N.pl3     1 ATP        -0.3222
     23 C8         -1.0660    2.5608    0.3999 C.ar      1 ATP         0.1640
     24 N7         -1.5852    3.6333   -0.2221 N.2       1 ATP        -0.1640
     25 C5         -0.4682    4.1996   -0.7771 C.ar      1 ATP         0.0820
     26 C6         -0.5216    5.4476   -1.5899 C.ar      1 ATP         0.1640
     27 N6         -1.6813    6.0510   -1.7982 N.pl3     1 ATP        -0.4916
     28 N1          0.6621    5.8575   -2.0523 N.pl3     1 ATP        -0.4390
     29 C2          1.8795    5.1301   -1.7717 C.ar      1 ATP         0.5691
     30 N3          1.9458    4.0434   -1.0670 N.ar      1 ATP        -0.4283
     31 C4          0.7388    3.6199   -0.5917 C.ar      1 ATP         0.2226
     32 H5'1        2.8432    0.3119   -2.6398 H         1 ATP        -0.0393
     33 H5'2        1.2128   -0.0927   -2.0428 H         1 ATP        -0.0393
     34 H4'         3.8040   -0.1399   -0.4044 H         1 ATP        -0.0393
     35 H3'         1.6768   -1.7637    0.2732 H         1 ATP        -0.0393
     36 HO3'        2.2231   -1.2979    2.3952 H         1 ATP         0.2010
     37 H2'         0.0002   -0.0084   -0.0014 H         1 ATP        -0.0393
     38 HO2'       -0.1554   -0.9852    2.0577 H         1 ATP         0.2010
     39 H1'         1.7718    1.9211    1.6015 H         1 ATP        -0.0393
     40 H8         -1.7235    1.8833    0.9537 H         1 ATP         0.0000
     41 HN61       -2.5296    5.6672   -1.4072 H         1 ATP         0.2048
     42 HN62       -1.7205    6.8969   -2.3483 H         1 ATP         0.2048
     43 H2          2.7750    5.5878   -2.2190 H         1 ATP        -0.1292
     44 H44         0.6808    6.7046   -2.6128 H         1 ATP         0.2048
@<TRIPOS>BOND
     1    1    2 2
     2    1    3 1
     3    1    4 1
     4    1    8 1
     5    5    6 2
     6    5    7 1
     7    5    8 1
     8    5   12 1
     9    9   10 2
    10    9   11 1
    11    9   12 1
    12    9   13 1
    13   13   14 1
    14   14   15 1
    15   14   32 1
    16   14   33 1
    17   15   16 1
    18   15   17 1
    19   15   34 1
    20   16   21 1
    21   17   18 1
    22   17   19 1
    23   17   35 1
    24   18   36 1
    25   19   20 1
    26   19   21 1
    27   19   37 1
    28   20   38 1
    29   21   22 1
    30   21   39 1
    31   22   23 ar
    32   22   31 ar
    33   23   24 ar
    34   23   40 1
    35   24   25 ar
    36   25   26 ar
    37   25   31 ar
    38   26   27 1
    39   26   28 ar
    40   27   41 1
    41   27   42 1
    42   28   29 ar
    43   28   44 1
    44   29   30 ar
    45   29   43 1
    46   30   31 ar
@<TRIPOS>SUBSTRUCTURE
     1 ATP         1 GROUP 0 A     ****
@<TRIPOS>MOLECULE
[[[5-(6-amino-1,8-dihydropurine-6,8-diylium-7-id-9-yl)-3,4-dihydroxy-tetrahydrofuran-2-yl]methoxy-oxido-phosphoryl]oxy-oxido-phosphoryl] phosphate
   44    46     1     0     0
SMALL
USER_CHARGES

@<TRIPOS>ATOM
      1 PG         -0.5614  -10.2175    3.8881 P.3       1 ATP        -1.1921
      2 O1G        -2.0357  -10.5023    4.1551 O.co2     1 ATP         0.3195
      3 O2G        -0.0847  -10.6212    2.4969 O.co2     1 ATP         0.3195
      4 O3G         0.3725  -10.6405    5.0171 O.co2     1 ATP         0.3195
      5 PB         -0.8186   -7.4977    5.0674 P.3       1 ATP        -1.1062
      6 O1B        -2.3111   -7.5227    5.3113 O.co2     1 ATP         0.3195
      7 O2B         0.1638   -7.6755    6.2035 O.co2     1 ATP         0.3195
      8 O3B        -0.4602   -8.5714    3.8893 O.3       1 ATP         0.4672
      9 PA         -0.5242   -4.5704    4.7529 P.3       1 ATP        -1.1062
     10 O1A         0.5074   -4.3598    5.8396 O.co2     1 ATP         0.3195
     11 O2A        -1.9751   -4.2070    4.9829 O.co2     1 ATP         0.3195
     12 O3A        -0.4439   -6.1272    4.2632 O.3       1 ATP         0.4672
     13 O5'         0.0118   -3.8395    3.3916 O.3       1 ATP         0.1618
     14 C5'        -0.7840   -3.8935    2.2172 C.3       1 ATP         0.1504
     15 C4'        -0.0724   -3.1466    1.1027 C.3       1 ATP         0.1111
     16 O4'        -0.8674   -3.1929   -0.0945 O.3       1 ATP        -0.1436
     17 C3'         0.1338   -1.6715    1.4027 C.3       1 ATP         0.1111
     18 O3'         1.2893   -1.4445    2.1808 O.3       1 ATP        -0.2728
     19 C2'         0.2158   -1.0724    0.0128 C.3       1 ATP         0.1111
     20 O2'         1.5141   -1.2448   -0.5513 O.3       1 ATP        -0.2728
     21 C1'        -0.7897   -1.9176   -0.7583 C.3       1 ATP         0.2693
     22 N9         -2.1040   -1.3333   -0.7704 N.pl3     1 ATP        -0.3222
     23 C8         -3.2124   -1.5345    0.2719 C.ar      1 ATP         0.1640
     24 N7         -4.2964   -0.8234   -0.0828 N.2       1 ATP        -0.1640
     25 C5         -3.8754   -0.2386   -1.2478 C.ar      1 ATP         0.0820
     26 C6         -4.7432    0.6719   -2.0470 C.ar      1 ATP         0.1640
     27 N6         -5.9725    0.9415   -1.6366 N.pl3     1 ATP        -0.4916
     28 N1         -4.1703    1.1517   -3.1536 N.pl3     1 ATP        -0.4390
     29 C2         -2.8174    0.7994   -3.5215 C.ar      1 ATP         0.5691
     30 N3         -2.0475    0.0097   -2.8393 N.ar      1 ATP        -0.4283
     31 C4         -2.6278   -0.4836   -1.7071 C.ar      1 ATP         0.2226
     32 H5'1       -0.9348   -4.9415    1.9415 H         1 ATP        -0.0393
     33 H5'2       -1.7548   -3.4350    2.4278 H         1 ATP        -0.0393
     34 H4'         0.8871   -3.6466    0.8809 H         1 ATP        -0.0393
     35 H3'        -0.7370   -1.2334    1.9869 H         1 ATP        -0.0393
     36 HO3'        1.1625   -1.9325    3.0084 H         1 ATP         0.2010
     37 H2'        -0.0343   -0.0280    0.0196 H         1 ATP        -0.0393
     38 HO2'        2.1443   -0.7955    0.0378 H         1 ATP         0.2010
     39 H1'        -0.5175   -2.1046   -1.7826 H         1 ATP        -0.0393
     40 H8         -3.2310   -2.1319    1.1889 H         1 ATP         0.0000
     41 HN61       -6.3231    0.5316   -0.7829 H         1 ATP         0.2048
     42 HN62       -6.5628    1.5584   -2.1760 H         1 ATP         0.2048
     43 H2         -2.4822    1.2710   -4.4579 H         1 ATP        -0.1292
     44 H44        -4.7200    1.7780   -3.7346 H         1 ATP         0.2048
@<TRIPOS>BOND
     1    1    2 2
     2    1    3 1
     3    1    4 1
     4    1    8 1
     5    5    6 2
     6    5    7 1
     7    5    8 1
     8    5   12 1
     9    9   10 2
    10    9   11 1
    11    9   12 1
    12    9   13 1
    13   13   14 1
    14   14   15 1
    15   14   32 1
    16   14   33 1
    17   15   16 1
    18   15   17 1
    19   15   34 1
    20   16   21 1
    21   17   18 1
    22   17   19 1
    23   17   35 1
    24   18   36 1
    25   19   20 1
    26   19   21 1
    27   19   37 1
    28   20   38 1
    29   21   22 1
    30   21   39 1
    31   22   23 ar
    32   22   31 ar
    33   23   24 ar
    34   23   40 1
    35   24   25 ar
    36   25   26 ar
    37   25   31 ar
    38   26   27 1
    39   26   28 ar
    40   27   41 1
    41   27   42 1
    42   28   29 ar
    43   28   44 1
    44   29   30 ar
    45   29   43 1
    46   30   31 ar
@<TRIPOS>SUBSTRUCTURE
     1 ATP         1 GROUP 0 A     ****
@<TRIPOS>MOLECULE
[[[5-(6-amino-1,8-dihydropurine-6,8-diylium-7-id-9-yl)-3,4-dihydroxy-tetrahydrofuran-2-yl]methoxy-oxido-phosphoryl]oxy-oxido-phosphoryl] phosphate
   44    46     1     0     0
SMALL
USER_CHARGES

@<TRIPOS>ATOM
      1 PG          6.5904    0.1194   -6.3185 P.3       1 ATP        -1.1921
      2 O1G         7.3179   -1.1417   -6.7728 O.co2     1 ATP         0.3195
      3 O2G         6.1875    1.0561   -7.4524 O.co2     1 ATP         0.3195
      4 O3G         7.2358    0.8198   -5.1273 O.co2     1 ATP         0.3195
      5 PB          4.8597   -1.4720   -4.4947 P.3       1 ATP        -1.1062
      6 O1B         5.3585   -2.8446   -4.8881 O.co2     1 ATP         0.3195
      7 O2B         5.2864   -0.8263   -3.1954 O.co2     1 ATP         0.3195
      8 O3B         5.1563   -0.4334   -5.7204 O.3       1 ATP         0.4672
      9 PA          2.1375   -2.2725   -3.6560 P.3       1 ATP        -1.1062
     10 O1A         2.4976   -3.7422   -3.6687 O.co2     1 ATP         0.3195
     11 O2A         0.7481   -1.8133   -4.0418 O.co2     1 ATP         0.3195
     12 O3A         3.2287   -1.4684   -4.5683 O.3       1 ATP         0.4672
     13 O5'         2.5245   -1.6648   -2.1878 O.3       1 ATP         0.1618
     14 C5'         2.2816   -0.2918   -1.9206 C.3       1 ATP         0.1504
     15 C4'         2.7248    0.0226   -0.4980 C.3       1 ATP         0.1111
     16 O4'         2.4697    1.4219   -0.2462 O.3       1 ATP        -0.1436
     17 C3'         1.9404   -0.7419    0.5596 C.3       1 ATP         0.1111
     18 O3'         2.7418   -0.8086    1.7389 O.3       1 ATP        -0.2728
     19 C2'         0.7477    0.1630    0.7858 C.3       1 ATP         0.1111
     20 O2'         0.1373   -0.0577    2.0407 O.3       1 ATP        -0.2728
     21 C1'         1.3733    1.5427    0.6747 C.3       1 ATP         0.2693
     22 N9          0.4520    2.5240    0.1767 N.pl3     1 ATP        -0.3222
     23 C8         -0.7463    2.2774   -0.7501 C.ar      1 ATP         0.1640
     24 N7         -1.3714    3.4419   -0.9948 N.2       1 ATP        -0.1640
     25 C5         -0.6104    4.3223   -0.2723 C.ar      1 ATP         0.0820
     26 C6         -0.9062    5.7820   -0.2194 C.ar      1 ATP         0.1640
     27 N6         -1.9385    6.2713   -0.8881 N.pl3     1 ATP        -0.4916
     28 N1         -0.0613    6.4906    0.5336 N.pl3     1 ATP        -0.4390
     29 C2          1.0416    5.8662    1.2291 C.ar      1 ATP         0.5691
     30 N3          1.3146    4.5989    1.1954 N.ar      1 ATP        -0.4283
     31 C4          0.4541    3.8697    0.4273 C.ar      1 ATP         0.2226
     32 H5'1        2.8432    0.3119   -2.6398 H         1 ATP        -0.0393
     33 H5'2        1.2128   -0.0927   -2.0428 H         1 ATP        -0.0393
     34 H4'         3.8040   -0.1399   -0.4044 H         1 ATP        -0.0393
     35 H3'         1.6768   -1.7637    0.2732 H         1 ATP        -0.0393
     36 HO3'        2.2231   -1.2979    2.3952 H         1 ATP         0.2010
     37 H2'         0.0002   -0.0084   -0.0014 H         1 ATP        -0.0393
     38 HO2'       -0.6132    0.5577    2.1063 H         1 ATP         0.2010
     39 H1'         1.7718    1.9211    1.6015 H         1 ATP        -0.0393
     40 H8         -1.1244    1.3534   -1.1987 H         1 ATP         0.0000
     41 HN61       -2.5259    5.6573   -1.4336 H         1 ATP         0.2048
     42 HN62       -2.1416    7.2600   -0.8539 H         1 ATP         0.2048
     43 H2          1.6509    6.5764    1.8088 H         1 ATP        -0.1292
     44 H44        -0.2190    7.4917    0.6033 H         1 ATP         0.2048
@<TRIPOS>BOND
     1    1    2 2
     2    1    3 1
     3    1    4 1
     4    1    8 1
     5    5    6 2
     6    5    7 1
     7    5    8 1
     8    5   12 1
     9    9   10 2
    10    9   11 1
    11    9   12 1
    12    9   13 1
    13   13   14 1
    14   14   15 1
    15   14   32 1
    16   14   33 1
    17   15   16 1
    18   15   17 1
    19   15   34 1
    20   16   21 1
    21   17   18 1
    22   17   19 1
    23   17   35 1
    24   18   36 1
    25   19   20 1
    26   19   21 1
    27   19   37 1
    28   20   38 1
    29   21   22 1
    30   21   39 1
    31   22   23 ar
    32   22   31 ar
    33   23   24 ar
    34   23   40 1
    35   24   25 ar
    36   25   26 ar
    37   25   31 ar
    38   26   27 1
    39   26   28 ar
    40   27   41 1
    41   27   42 1
    42   28   29 ar
    43   28   44 1
    44   29   30 ar
    45   29   43 1
    46   30   31 ar
@<TRIPOS>SUBSTRUCTURE
     1 ATP         1 GROUP 0 A     ****
@<TRIPOS>MOLECULE
[[[5-(6-amino-1,8-dihydropurine-6,8-diylium-7-id-9-yl)-3,4-dihydroxy-tetrahydrofuran-2-yl]methoxy-oxido-phosphoryl]oxy-oxido-phosphoryl] phosphate
   44    46     1     0     0
SMALL
USER_CHARGES

@<TRIPOS>ATOM
      1 PG          3.3835   -3.4087   -8.0483 P.3       1 ATP        -1.1921
      2 O1G         4.8449   -3.1113   -8.3671 O.co2     1 ATP         0.3195
      3 O2G         3.0864   -4.8789   -7.7726 O.co2     1 ATP         0.3195
      4 O3G         2.3881   -2.7342   -8.9866 O.co2     1 ATP         0.3195
      5 PB          3.2619   -1.0892   -6.1885 P.3       1 ATP        -1.1062
      6 O1B         4.7188   -0.6903   -6.2663 O.co2     1 ATP         0.3195
      7 O2B         2.1945   -0.3021   -6.9154 O.co2     1 ATP         0.3195
      8 O3B         3.1253   -2.6645   -6.5994 O.3       1 ATP         0.4672
      9 PA          3.5298   -2.0738   -3.4112 P.3       1 ATP        -1.1062
     10 O1A         4.8908   -1.4786   -3.1232 O.co2     1 ATP         0.3195
     11 O2A         3.3795   -3.5484   -3.7163 O.co2     1 ATP         0.3195
     12 O3A         2.8383   -1.2148   -4.6168 O.3       1 ATP         0.4672
     13 O5'         2.5245   -1.6648   -2.1878 O.3       1 ATP         0.1618
     14 C5'         2.2816   -0.2918   -1.9206 C.3       1 ATP         0.1504
     15 C4'         2.7248    0.0226   -0.4980 C.3       1 ATP         0.1111
     16 O4'         2.4697    1.4219   -0.2462 O.3       1 ATP        -0.1436
     17 C3'         1.9404   -0.7419    0.5596 C.3       1 ATP         0.1111
     18 O3'         2.7418   -0.8086    1.7389 O.3       1 ATP        -0.2728
     19 C2'         0.7477    0.1630    0.7858 C.3       1 ATP         0.1111
     20 O2'         0.1373   -0.0577    2.0407 O.3       1 ATP        -0.2728
     21 C1'         1.3733    1.5427    0.6747 C.3       1 ATP         0.2693
     22 N9          0.4520    2.5240    0.1767 N.pl3     1 ATP        -0.3222
     23 C8         -0.3054    2.4845   -1.1576 C.ar      1 ATP         0.1640
     24 N7         -1.0755    3.5806   -1.2691 N.2       1 ATP        -0.1640
     25 C5         -0.8043    4.2306   -0.0942 C.ar      1 ATP         0.0820
     26 C6         -1.4324    5.5335    0.2646 C.ar      1 ATP         0.1640
     27 N6         -2.2885    6.1054   -0.5675 N.pl3     1 ATP        -0.4916
     28 N1         -1.0537    6.0229    1.4478 N.pl3     1 ATP        -0.4390
     29 C2         -0.1096    5.3242    2.2908 C.ar      1 ATP         0.5691
     30 N3          0.4468    4.1904    1.9960 N.ar      1 ATP        -0.4283
     31 C4          0.0631    3.6855    0.7877 C.ar      1 ATP         0.2226
     32 H5'1        2.8432    0.3119   -2.6398 H         1 ATP        -0.0393
     33 H5'2        1.2128   -0.0927   -2.0428 H         1 ATP        -0.0393
     34 H4'         3.8040   -0.1399   -0.4044 H         1 ATP        -0.0393
     35 H3'         1.6768   -1.7637    0.2732 H         1 ATP        -0.0393
     36 HO3'        2.2231   -1.2979    2.3952 H         1 ATP         0.2010
     37 H2'         0.0002   -0.0084   -0.0014 H         1 ATP        -0.0393
     38 HO2'       -0.1554   -0.9852    2.0577 H         1 ATP         0.2010
     39 H1'         1.7718    1.9211    1.6015 H         1 ATP        -0.0393
     40 H8         -0.2991    1.7413   -1.9611 H         1 ATP         0.0000
     41 HN61       -2.5167    5.6603   -1.4447 H         1 ATP         0.2048
     42 HN62       -2.7159    6.9882   -0.3270 H         1 ATP         0.2048
     43 H2          0.1059    5.8491    3.2340 H         1 ATP        -0.1292
     44 H44        -1.4532    6.9099    1.7401 H         1 ATP         0.2048
@<TRIPOS>BOND
     1    1    2 2
     2    1    3 1
     3    1    4 1
     4    1    8 1
     5    5    6 2
     6    5    7 1
     7    5    8 1
     8    5   12 1
     9    9   10 2
    10    9   11 1
    11    9   12 1
    12    9   13 1
    13   13   14 1
    14   14   15 1
    15   14   32 1
    16   14   33 1
    17   15   16 1
    18   15   17 1
    19   15   34 1
    20   16   21 1
    21   17   18 1
    22   17   19 1
    23   17   35 1
    24   18   36 1
    25   19   20 1
    26   19   21 1
    27   19   37 1
    28   20   38 1
    29   21   22 1
    30   21   39 1
    31   22   23 ar
    32   22   31 ar
    33   23   24 ar
    34   23   40 1
    35   24   25 ar
    36   25   26 ar
    37   25   31 ar
    38   26   27 1
    39   26   28 ar
    40   27   41 1
    41   27   42 1
    42   28   29 ar
    43   28   44 1
    44   29   30 ar
    45   29   43 1
    46   30   31 ar
@<TRIPOS>SUBSTRUCTURE
     1 ATP         1 GROUP 0 A     ****
@<TRIPOS>MOLECULE
[[[5-(6-amino-1,8-dihydropurine-6,8-diylium-7-id-9-yl)-3,4-dihydroxy-tetrahydrofuran-2-yl]methoxy-oxido-phosphoryl]oxy-oxido-phosphoryl] phosphate
   44    46     1     0     0
SMALL
USER_CHARGES

@<TRIPOS>ATOM
      1 PG          1.4298   -0.8214   -8.2057 P.3       1 ATP        -1.1921
      2 O1G         1.5597   -2.1954   -8.8547 O.co2     1 ATP         0.3195
      3 O2G        -0.0080   -0.3590   -7.9944 O.co2     1 ATP         0.3195
      4 O3G         2.3482    0.2412   -8.8000 O.co2     1 ATP         0.3195
      5 PB          3.4913   -1.5254   -6.1787 P.3       1 ATP        -1.1062
      6 O1B         3.6912   -2.9683   -6.5854 O.co2     1 ATP         0.3195
      7 O2B         4.5037   -0.4620   -6.5413 O.co2     1 ATP         0.3195
      8 O3B         2.0144   -1.0377   -6.6788 O.3       1 ATP         0.4672
      9 PA          2.1375   -2.2725   -3.6560 P.3       1 ATP        -1.1062
     10 O1A         2.4976   -3.7422   -3.6687 O.co2     1 ATP         0.3195
     11 O2A         0.7481   -1.8133   -4.0418 O.co2     1 ATP         0.3195
     12 O3A         3.2287   -1.4684   -4.5683 O.3       1 ATP         0.4672
     13 O5'         2.5245   -1.6648   -2.1878 O.3       1 ATP         0.1618
     14 C5'         2.2816   -0.2918   -1.9206 C.3       1 ATP         0.1504
     15 C4'         2.7248    0.0226   -0.4980 C.3       1 ATP         0.1111
     16 O4'         2.4697    1.4219   -0.2462 O.3       1 ATP        -0.1436
     17 C3'         1.9404   -0.7419    0.5596 C.3       1 ATP         0.1111
     18 O3'         2.7418   -0.8086    1.7389 O.3       1 ATP        -0.2728
     19 C2'         0.7477    0.1630    0.7858 C.3       1 ATP         0.1111
     20 O2'         0.1373   -0.0577    2.0407 O.3       1 ATP        -0.2728
     21 C1'         1.3733    1.5427    0.6747 C.3       1 ATP         0.2693
     22 N9          0.4520    2.5240    0.1767 N.pl3     1 ATP        -0.3222
     23 C8         -1.0660    2.5608    0.3999 C.ar      1 ATP         0.1640
     24 N7         -1.5852    3.6333   -0.2221 N.2       1 ATP        -0.1640
     25 C5         -0.4682    4.1996   -0.7771 C.ar      1 ATP         0.0820
     26 C6         -0.5216    5.4476   -1.5899 C.ar      1 ATP         0.1640
     27 N6         -1.6813    6.0510   -1.7982 N.pl3     1 ATP        -0.4916
     28 N1          0.6621    5.8575   -2.0523 N.pl3     1 ATP        -0.4390
     29 C2          1.8795    5.1301   -1.7717 C.ar      1 ATP         0.5691
     30 N3          1.9458    4.0434   -1.0670 N.ar      1 ATP        -0.4283
     31 C4          0.7388    3.6199   -0.5917 C.ar      1 ATP         0.2226
     32 H5'1        2.8432    0.3119   -2.6398 H         1 ATP        -0.0393
     33 H5'2        1.2128   -0.0927   -2.0428 H         1 ATP        -0.0393
     34 H4'         3.8040   -0.1399   -0.4044 H         1 ATP        -0.0393
     35 H3'         1.6768   -1.7637    0.2732 H         1 ATP        -0.0393
     36 HO3'        2.2231   -1.2979    2.3952 H         1 ATP         0.2010
     37 H2'         0.0002   -0.0084   -0.0014 H         1 ATP        -0.0393
     38 HO2'       -0.1554   -0.9852    2.0577 H         1 ATP         0.2010
     39 H1'         1.7718    1.9211    1.6015 H         1 ATP        -0.0393
     40 H8         -1.7235    1.8833    0.9537 H         1 ATP         0.0000
     41 HN61       -2.5296    5.6672   -1.4072 H         1 ATP         0.2048
     42 HN62       -1.7205    6.8969   -2.3483 H         1 ATP         0.2048
     43 H2          2.7750    5.5878   -2.2190 H         1 ATP        -0.1292
     44 H44         0.6808    6.7046   -2.6128 H         1 ATP         0.2048
@<TRIPOS>BOND
     1    1    2 2
     2    1    3 1
     3    1    4 1
     4    1    8 1
     5    5    6 2
     6    5    7 1
     7    5    8 1
     8    5   12 1
     9    9   10 2
    10    9   11 1
    11    9   12 1
    12    9   13 1
    13   13   14 1
    14   14   15 1
    15   14   32 1
    16   14   33 1
    17   15   16 1
    18   15   17 1
    19   15   34 1
    20   16   21 1
    21   17   18 1
    22   17   19 1
    23   17   35 1
    24   18   36 1
    25   19   20 1
    26   19   21 1
    27   19   37 1
    28   20   38 1
    29   21   22 1
    30   21   39 1
    31   22   23 ar
    32   22   31 ar
    33   23   24 ar
    34   23   40 1
    35   24   25 ar
    36   25   26 ar
    37   25   31 ar
    38   26   27 1
    39   26   28 ar
    40   27   41 1
    41   27   42 1
    42   28   29 ar
    43   28   44 1
    44   29   30 ar
    45   29   43 1
    46   30   31 ar
@<TRIPOS>SUBSTRUCTURE
     1 ATP         1 GROUP 0 A     ****
@<TRIPOS>MOLECULE
[[[5-(6-amino-1,8-dihydropurine-6,8-diylium-7-id-9-yl)-3,4-dihydroxy-tetrahydrofuran-2-yl]methoxy-oxido-phosphoryl]oxy-oxido-phosphoryl] phosphate
   44    46     1     0     0
SMALL
USER_CHARGES

@<TRIPOS>ATOM
      1 PG         -3.5497   -2.6856   -4.0089 P.3       1 ATP        -1.1921
      2 O1G        -3.6759   -4.1802   -4.2847 O.co2     1 ATP         0.3195
      3 O2G        -4.2713   -2.2150   -2.7506 O.co2     1 ATP         0.3195
      4 O3G        -3.7803   -1.8018   -5.2303 O.co2     1 ATP         0.3195
      5 PB         -0.6299   -2.7736   -4.5755 P.3       1 ATP        -1.1062
      6 O1B        -0.5066   -4.2681   -4.7729 O.co2     1 ATP         0.3195
      7 O2B        -0.6231   -1.8248   -5.7532 O.co2     1 ATP         0.3195
      8 O3B        -1.9514   -2.4708   -3.6639 O.3       1 ATP         0.4672
      9 PA          2.1375   -2.2725   -3.6560 P.3       1 ATP        -1.1062
     10 O1A         2.5092   -1.2469   -4.7046 O.co2     1 ATP         0.3195
     11 O2A         2.6337   -3.6984   -3.7587 O.co2     1 ATP         0.3195
     12 O3A         0.5101   -2.2919   -3.5107 O.3       1 ATP         0.4672
     13 O5'         2.5245   -1.6648   -2.1878 O.3       1 ATP         0.1618
     14 C5'         2.2816   -0.2918   -1.9206 C.3       1 ATP         0.1504
     15 C4'         2.7248    0.0226   -0.4980 C.3       1 ATP         0.1111
     16 O4'         2.4697    1.4219   -0.2462 O.3       1 ATP        -0.1436
     17 C3'         1.9404   -0.7419    0.5596 C.3       1 ATP         0.1111
     18 O3'         2.7418   -0.8086    1.7389 O.3       1 ATP        -0.2728
     19 C2'         0.7477    0.1630    0.7858 C.3       1 ATP         0.1111
     20 O2'         0.1373   -0.0577    2.0407 O.3       1 ATP        -0.2728
     21 C1'         1.3733    1.5427    0.6747 C.3       1 ATP         0.2693
     22 N9          0.4520    2.5240    0.1767 N.pl3     1 ATP        -0.3222
     23 C8         -1.0660    2.5608    0.3999 C.ar      1 ATP         0.1640
     24 N7         -1.5852    3.6333   -0.2221 N.2       1 ATP        -0.1640
     25 C5         -0.4682    4.1996   -0.7771 C.ar      1 ATP         0.0820
     26 C6         -0.5216    5.4476   -1.5899 C.ar      1 ATP         0.1640
     27 N6         -1.6813    6.0510   -1.7982 N.pl3     1 ATP        -0.4916
     28 N1          0.6621    5.8575   -2.0523 N.pl3     1 ATP        -0.4390
     29 C2          1.8795    5.1301   -1.7717 C.ar      1 ATP         0.5691
     30 N3          1.9458    4.0434   -1.0670 N.ar      1 ATP        -0.4283
     31 C4          0.7388    3.6199   -0.5917 C.ar      1 ATP         0.2226
     32 H5'1        2.8432    0.3119   -2.6398 H         1 ATP        -0.0393
     33 H5'2        1.2128   -0.0927   -2.0428 H         1 ATP        -0.0393
     34 H4'         3.8040   -0.1399   -0.4044 H         1 ATP        -0.0393
     35 H3'         1.6768   -1.7637    0.2732 H         1 ATP        -0.0393
     36 HO3'        2.2231   -1.2979    2.3952 H         1 ATP         0.2010
     37 H2'         0.0002   -0.0084   -0.0014 H         1 ATP        -0.0393
     38 HO2'       -0.1554   -0.9852    2.0577 H         1 ATP         0.2010
     39 H1'         1.7718    1.9211    1.6015 H         1 ATP        -0.0393
     40 H8         -1.7235    1.8833    0.9537 H         1 ATP         0.0000
     41 HN61       -2.5296    5.6672   -1.4072 H         1 ATP         0.2048
     42 HN62       -1.7205    6.8969   -2.3483 H         1 ATP         0.2048
     43 H2          2.7750    5.5878   -2.2190 H         1 ATP        -0.1292
     44 H44         0.6808    6.7046   -2.6128 H         1 ATP         0.2048
@<TRIPOS>BOND
     1    1    2 2
     2    1    3 1
     3    1    4 1
     4    1    8 1
     5    5    6 2
     6    5    7 1
     7    5    8 1
     8    5   12 1
     9    9   10 2
    10    9   11 1
    11    9   12 1
    12    9   13 1
    13   13   14 1
    14   14   15 1
    15   14   32 1
    16   14   33 1
    17   15   16 1
    18   15   17 1
    19   15   34 1
    20   16   21 1
    21   17   18 1
    22   17   19 1
    23   17   35 1
    24   18   36 1
    25   19   20 1
    26   19   21 1
    27   19   37 1
    28   20   38 1
    29   21   22 1
    30   21   39 1
    31   22   23 ar
    32   22   31 ar
    33   23   24 ar
    34   23   40 1
    35   24   25 ar
    36   25   26 ar
    37   25   31 ar
    38   26   27 1
    39   26   28 ar
    40   27   41 1
    41   27   42 1
    42   28   29 ar
    43   28   44 1
    44   29   30 ar
    45   29   43 1
    46   30   31 ar
@<TRIPOS>SUBSTRUCTURE
     1 ATP         1 GROUP 0 A     ****
@<TRIPOS>MOLECULE
[[[5-(6-amino-1,8-dihydropurine-6,8-diylium-7-id-9-yl)-3,4-dihydroxy-tetrahydrofuran-2-yl]methoxy-oxido-phosphoryl]oxy-oxido-phosphoryl] phosphate
   44    46     1     0     0
SMALL
USER_CHARGES

@<TRIPOS>ATOM
      1 PG         -1.2439   -0.1525   -7.1644 P.3       1 ATP        -1.1921
      2 O1G        -1.7301   -1.4704   -7.7583 O.co2     1 ATP         0.3195
      3 O2G        -2.3197    0.6423   -6.4320 O.co2     1 ATP         0.3195
      4 O3G        -0.3843    0.6807   -8.1093 O.co2     1 ATP         0.3195
      5 PB          1.1818   -1.4809   -6.0665 P.3       1 ATP        -1.1062
      6 O1B         0.8329   -2.8986   -6.4614 O.co2     1 ATP         0.3195
      7 O2B         2.2138   -0.6855   -6.8343 O.co2     1 ATP         0.3195
      8 O3B        -0.1951   -0.6064   -5.9753 O.3       1 ATP         0.4672
      9 PA          2.8604   -2.1325   -3.7186 P.3       1 ATP        -1.1062
     10 O1A         4.1132   -1.4128   -4.1682 O.co2     1 ATP         0.3195
     11 O2A         2.7548   -3.6386   -3.8207 O.co2     1 ATP         0.3195
     12 O3A         1.5811   -1.4632   -4.4835 O.3       1 ATP         0.4672
     13 O5'         2.5245   -1.6648   -2.1878 O.3       1 ATP         0.1618
     14 C5'         2.2816   -0.2918   -1.9206 C.3       1 ATP         0.1504
     15 C4'         2.7248    0.0226   -0.4980 C.3       1 ATP         0.1111
     16 O4'         2.4697    1.4219   -0.2462 O.3       1 ATP        -0.1436
     17 C3'         1.9404   -0.7419    0.5596 C.3       1 ATP         0.1111
     18 O3'         2.7418   -0.8086    1.7389 O.3       1 ATP        -0.2728
     19 C2'         0.7477    0.1630    0.7858 C.3       1 ATP         0.1111
     20 O2'         0.1373   -0.0577    2.0407 O.3       1 ATP        -0.2728
     21 C1'         1.3733    1.5427    0.6747 C.3       1 ATP         0.2693
     22 N9          0.4520    2.5240    0.1767 N.pl3     1 ATP        -0.3222
     23 C8          0.5793    3.3338   -1.1209 C.ar      1 ATP         0.1640
     24 N7         -0.4807    4.1508   -1.2458 N.2       1 ATP        -0.1640
     25 C5         -1.1921    3.8572   -0.1126 C.ar      1 ATP         0.0820
     26 C6         -2.4855    4.5203    0.2163 C.ar      1 ATP         0.1640
     27 N6         -2.9873    5.4319   -0.6020 N.pl3     1 ATP        -0.4916
     28 N1         -3.0414    4.1119    1.3596 N.pl3     1 ATP        -0.4390
     29 C2         -2.4169    3.1071    2.1904 C.ar      1 ATP         0.5691
     30 N3         -1.2928    2.5191    1.9210 N.ar      1 ATP        -0.4283
     31 C4         -0.7202    2.9326    0.7534 C.ar      1 ATP         0.2226
     32 H5'1        2.8432    0.3119   -2.6398 H         1 ATP        -0.0393
     33 H5'2        1.2128   -0.0927   -2.0428 H         1 ATP        -0.0393
     34 H4'         3.8040   -0.1399   -0.4044 H         1 ATP        -0.0393
     35 H3'         1.6768   -1.7637    0.2732 H         1 ATP        -0.0393
     36 HO3'        3.5553   -1.2733    1.4913 H         1 ATP         0.2010
     37 H2'         0.0002   -0.0084   -0.0014 H         1 ATP        -0.0393
     38 HO2'        0.8091    0.1203    2.7213 H         1 ATP         0.2010
     39 H1'         1.7718    1.9211    1.6015 H         1 ATP        -0.0393
     40 H8          1.3565    3.3309   -1.8916 H         1 ATP         0.0000
     41 HN61       -2.4952    5.6785   -1.4487 H         1 ATP         0.2048
     42 HN62       -3.8637    5.8828   -0.3819 H         1 ATP         0.2048
     43 H2         -2.9911    2.8734    3.1000 H         1 ATP        -0.1292
     44 H44        -3.9253    4.5332    1.6302 H         1 ATP         0.2048
@<TRIPOS>BOND
     1    1    2 2
     2    1    3 1
     3    1    4 1
     4    1    8 1
     5    5    6 2
     6    5    7 1
     7    5    8 1
     8    5   12 1
     9    9   10 2
    10    9   11 1
    11    9   12 1
    12    9   13 1
    13   13   14 1
    14   14   15 1
    15   14   32 1
    16   14   33 1
    17   15   16 1
    18   15   17 1
    19   15   34 1
    20   16   21 1
    21   17   18 1
    22   17   19 1
    23   17   35 1
    24   18   36 1
    25   19   20 1
    26   19   21 1
    27   19   37 1
    28   20   38 1
    29   21   22 1
    30   21   39 1
    31   22   23 ar
    32   22   31 ar
    33   23   24 ar
    34   23   40 1
    35   24   25 ar
    36   25   26 ar
    37   25   31 ar
    38   26   27 1
    39   26   28 ar
    40   27   41 1
    41   27   42 1
    42   28   29 ar
    43   28   44 1
    44   29   30 ar
    45   29   43 1
    46   30   31 ar
@<TRIPOS>SUBSTRUCTURE
     1 ATP         1 GROUP 0 A     ****
@<TRIPOS>MOLECULE
[[[5-(6-amino-1,8-dihydropurine-6,8-diylium-7-id-9-yl)-3,4-dihydroxy-tetrahydrofuran-2-yl]methoxy-oxido-phosphoryl]oxy-oxido-phosphoryl] phosphate
   44    46     1     0     0
SMALL
USER_CHARGES

@<TRIPOS>ATOM
      1 PG         -1.1672   -8.7541    2.4353 P.3       1 ATP        -1.1921
      2 O1G        -0.6145   -8.3951    1.0600 O.co2     1 ATP         0.3195
      3 O2G        -1.4268  -10.2429    2.6398 O.co2     1 ATP         0.3195
      4 O3G        -2.2999   -7.8501    2.9104 O.co2     1 ATP         0.3195
      5 PB          0.8398   -7.0005    3.7583 P.3       1 ATP        -1.1062
      6 O1B         1.7847   -7.1896    4.9241 O.co2     1 ATP         0.3195
      7 O2B         1.3231   -6.4329    2.4424 O.co2     1 ATP         0.3195
      8 O3B         0.0699   -8.4125    3.4709 O.3       1 ATP         0.4672
      9 PA         -0.5242   -4.5704    4.7529 P.3       1 ATP        -1.1062
     10 O1A         0.5074   -4.3598    5.8396 O.co2     1 ATP         0.3195
     11 O2A        -1.9751   -4.2070    4.9829 O.co2     1 ATP         0.3195
     12 O3A        -0.4439   -6.1272    4.2632 O.3       1 ATP         0.4672
     13 O5'         0.0118   -3.8395    3.3916 O.3       1 ATP         0.1618
     14 C5'        -0.7840   -3.8935    2.2172 C.3       1 ATP         0.1504
     15 C4'        -0.0724   -3.1466    1.1027 C.3       1 ATP         0.1111
     16 O4'        -0.8674   -3.1929   -0.0945 O.3       1 ATP        -0.1436
     17 C3'         0.1338   -1.6715    1.4027 C.3       1 ATP         0.1111
     18 O3'         1.2893   -1.4445    2.1808 O.3       1 ATP        -0.2728
     19 C2'         0.2158   -1.0724    0.0128 C.3       1 ATP         0.1111
     20 O2'         1.5141   -1.2448   -0.5513 O.3       1 ATP        -0.2728
     21 C1'        -0.7897   -1.9176   -0.7583 C.3       1 ATP         0.2693
     22 N9         -2.1040   -1.3333   -0.7704 N.pl3     1 ATP        -0.3222
     23 C8         -3.2124   -1.5345    0.2719 C.ar      1 ATP         0.1640
     24 N7         -4.2964   -0.8234   -0.0828 N.2       1 ATP        -0.1640
     25 C5         -3.8754   -0.2386   -1.2478 C.ar      1 ATP         0.0820
     26 C6         -4.7432    0.6719   -2.0470 C.ar      1 ATP         0.1640
     27 N6         -5.9725    0.9415   -1.6366 N.pl3     1 ATP        -0.4916
     28 N1         -4.1703    1.1517   -3.1536 N.pl3     1 ATP        -0.4390
     29 C2         -2.8174    0.7994   -3.5215 C.ar      1 ATP         0.5691
     30 N3         -2.0475    0.0097   -2.8393 N.ar      1 ATP        -0.4283
     31 C4         -2.6278   -0.4836   -1.7071 C.ar      1 ATP         0.2226
     32 H5'1       -0.9348   -4.9415    1.9415 H         1 ATP        -0.0393
     33 H5'2       -1.7548   -3.4350    2.4278 H         1 ATP        -0.0393
     34 H4'         0.8871   -3.6466    0.8809 H         1 ATP        -0.0393
     35 H3'        -0.7370   -1.2334    1.9869 H         1 ATP        -0.0393
     36 HO3'        1.1625   -1.9325    3.0084 H         1 ATP         0.2010
     37 H2'        -0.0343   -0.0280    0.0196 H         1 ATP        -0.0393
     38 HO2'        2.1443   -0.7955    0.0378 H         1 ATP         0.2010
     39 H1'        -0.5175   -2.1046   -1.7826 H         1 ATP        -0.0393
     40 H8         -3.2310   -2.1319    1.1889 H         1 ATP         0.0000
     41 HN61       -6.3231    0.5316   -0.7829 H         1 ATP         0.2048
     42 HN62       -6.5628    1.5584   -2.1760 H         1 ATP         0.2048
     43 H2         -2.4822    1.2710   -4.4579 H         1 ATP        -0.1292
     44 H44        -4.7200    1.7780   -3.7346 H         1 ATP         0.2048
@<TRIPOS>BOND
     1    1    2 2
     2    1    3 1
     3    1    4 1
     4    1    8 1
     5    5    6 2
     6    5    7 1
     7    5    8 1
     8    5   12 1
     9    9   10 2
    10    9   11 1
    11    9   12 1
    12    9   13 1
    13   13   14 1
    14   14   15 1
    15   14   32 1
    16   14   33 1
    17   15   16 1
    18   15   17 1
    19   15   34 1
    20   16   21 1
    21   17   18 1
    22   17   19 1
    23   17   35 1
    24   18   36 1
    25   19   20 1
    26   19   21 1
    27   19   37 1
    28   20   38 1
    29   21   22 1
    30   21   39 1
    31   22   23 ar
    32   22   31 ar
    33   23   24 ar
    34   23   40 1
    35   24   25 ar
    36   25   26 ar
    37   25   31 ar
    38   26   27 1
    39   26   28 ar
    40   27   41 1
    41   27   42 1
    42   28   29 ar
    43   28   44 1
    44   29   30 ar
    45   29   43 1
    46   30   31 ar
@<TRIPOS>SUBSTRUCTURE
     1 ATP         1 GROUP 0 A     ****
@<TRIPOS>MOLECULE
[[[5-(6-amino-1,8-dihydropurine-6,8-diylium-7-id-9-yl)-3,4-dihydroxy-tetrahydrofuran-2-yl]methoxy-oxido-phosphoryl]oxy-oxido-phosphoryl] phosphate
   44    46     1     0     0
SMALL
USER_CHARGES

@<TRIPOS>ATOM
      1 PG          3.1985    1.8085   -6.5752 P.3       1 ATP        -1.1921
      2 O1G         4.2982    2.7490   -7.0571 O.co2     1 ATP         0.3195
      3 O2G         2.1067    1.5376   -7.6048 O.co2     1 ATP         0.3195
      4 O3G         2.6765    2.1202   -5.1765 O.co2     1 ATP         0.3195
      5 PB          5.2191   -0.0617   -5.4468 P.3       1 ATP        -1.1062
      6 O1B         5.8879   -1.2846   -6.0339 O.co2     1 ATP         0.3195
      7 O2B         6.0128    1.1829   -5.1175 O.co2     1 ATP         0.3195
      8 O3B         3.9575    0.3552   -6.3973 O.3       1 ATP         0.4672
      9 PA          3.2534   -1.6812   -3.9408 P.3       1 ATP        -1.1062
     10 O1A         3.9285   -3.0236   -4.1189 O.co2     1 ATP         0.3195
     11 O2A         2.0354   -1.3132   -4.7601 O.co2     1 ATP         0.3195
     12 O3A         4.3802   -0.5117   -4.1204 O.3       1 ATP         0.4672
     13 O5'         2.9216   -1.4836   -2.3516 O.3       1 ATP         0.1618
     14 C5'         2.2816   -0.2918   -1.9206 C.3       1 ATP         0.1504
     15 C4'         2.7248    0.0226   -0.4980 C.3       1 ATP         0.1111
     16 O4'         2.4697    1.4219   -0.2462 O.3       1 ATP        -0.1436
     17 C3'         1.9404   -0.7419    0.5596 C.3       1 ATP         0.1111
     18 O3'         2.7418   -0.8086    1.7389 O.3       1 ATP        -0.2728
     19 C2'         0.7477    0.1630    0.7858 C.3       1 ATP         0.1111
     20 O2'         0.1373   -0.0577    2.0407 O.3       1 ATP        -0.2728
     21 C1'         1.3733    1.5427    0.6747 C.3       1 ATP         0.2693
     22 N9          0.4520    2.5240    0.1767 N.pl3     1 ATP        -0.3222
     23 C8         -0.3054    2.4845   -1.1576 C.ar      1 ATP         0.1640
     24 N7         -1.0755    3.5806   -1.2691 N.2       1 ATP        -0.1640
     25 C5         -0.8043    4.2306   -0.0942 C.ar      1 ATP         0.0820
     26 C6         -1.4324    5.5335    0.2646 C.ar      1 ATP         0.1640
     27 N6         -2.2885    6.1054   -0.5675 N.pl3     1 ATP        -0.4916
     28 N1         -1.0537    6.0229    1.4478 N.pl3     1 ATP        -0.4390
     29 C2         -0.1096    5.3242    2.2908 C.ar      1 ATP         0.5691
     30 N3          0.4468    4.1904    1.9960 N.ar      1 ATP        -0.4283
     31 C4          0.0631    3.6855    0.7877 C.ar      1 ATP         0.2226
     32 H5'1        2.5589    0.5217   -2.5976 H         1 ATP        -0.0393
     33 H5'2        1.1982   -0.4388   -1.9617 H         1 ATP        -0.0393
     34 H4'         3.8040   -0.1399   -0.4044 H         1 ATP        -0.0393
     35 H3'         1.6768   -1.7637    0.2732 H         1 ATP        -0.0393
     36 HO3'        2.2231   -1.2979    2.3952 H         1 ATP         0.2010
     37 H2'         0.0002   -0.0084   -0.0014 H         1 ATP        -0.0393
     38 HO2'       -0.1554   -0.9852    2.0577 H         1 ATP         0.2010
     39 H1'         1.7718    1.9211    1.6015 H         1 ATP        -0.0393
     40 H8         -0.2991    1.7413   -1.9611 H         1 ATP         0.0000
     41 HN61       -2.5167    5.6603   -1.4447 H         1 ATP         0.2048
     42 HN62       -2.7159    6.9882   -0.3270 H         1 ATP         0.2048
     43 H2          0.1059    5.8491    3.2340 H         1 ATP        -0.1292
     44 H44        -1.4532    6.9099    1.7401 H         1 ATP         0.2048
@<TRIPOS>BOND
     1    1    2 2
     2    1    3 1
     3    1    4 1
     4    1    8 1
     5    5    6 2
     6    5    7 1
     7    5    8 1
     8    5   12 1
     9    9   10 2
    10    9   11 1
    11    9   12 1
    12    9   13 1
    13   13   14 1
    14   14   15 1
    15   14   32 1
    16   14   33 1
    17   15   16 1
    18   15   17 1
    19   15   34 1
    20   16   21 1
    21   17   18 1
    22   17   19 1
    23   17   35 1
    24   18   36 1
    25   19   20 1
    26   19   21 1
    27   19   37 1
    28   20   38 1
    29   21   22 1
    30   21   39 1
    31   22   23 ar
    32   22   31 ar
    33   23   24 ar
    34   23   40 1
    35   24   25 ar
    36   25   26 ar
    37   25   31 ar
    38   26   27 1
    39   26   28 ar
    40   27   41 1
    41   27   42 1
    42   28   29 ar
    43   28   44 1
    44   29   30 ar
    45   29   43 1
    46   30   31 ar
@<TRIPOS>SUBSTRUCTURE
     1 ATP         1 GROUP 0 A     ****
@<TRIPOS>MOLECULE
[[[5-(6-amino-1,8-dihydropurine-6,8-diylium-7-id-9-yl)-3,4-dihydroxy-tetrahydrofuran-2-yl]methoxy-oxido-phosphoryl]oxy-oxido-phosphoryl] phosphate
   44    46     1     0     0
SMALL
USER_CHARGES

@<TRIPOS>ATOM
      1 PG          5.9059   -2.3160   -6.7282 P.3       1 ATP        -1.1921
      2 O1G         6.3926   -1.9553   -5.3286 O.co2     1 ATP         0.3195
      3 O2G         6.0371   -3.7944   -7.0782 O.co2     1 ATP         0.3195
      4 O3G         6.3874   -1.3685   -7.8220 O.co2     1 ATP         0.3195
      5 PB          3.4436   -0.6890   -6.3487 P.3       1 ATP        -1.1062
      6 O1B         4.3288    0.5022   -6.6405 O.co2     1 ATP         0.3195
      7 O2B         2.0636   -0.8068   -6.9562 O.co2     1 ATP         0.3195
      8 O3B         4.2784   -2.0560   -6.6706 O.3       1 ATP         0.4672
      9 PA          2.6201   -2.0522   -3.8550 P.3       1 ATP        -1.1062
     10 O1A         3.4234   -3.3195   -4.0506 O.co2     1 ATP         0.3195
     11 O2A         1.1288   -2.0346   -4.1115 O.co2     1 ATP         0.3195
     12 O3A         3.3177   -0.8618   -4.7301 O.3       1 ATP         0.4672
     13 O5'         2.9216   -1.4836   -2.3516 O.3       1 ATP         0.1618
     14 C5'         2.2816   -0.2918   -1.9206 C.3       1 ATP         0.1504
     15 C4'         2.7248    0.0226   -0.4980 C.3       1 ATP         0.1111
     16 O4'         2.4697    1.4219   -0.2462 O.3       1 ATP        -0.1436
     17 C3'         1.9404   -0.7419    0.5596 C.3       1 ATP         0.1111
     18 O3'         2.7418   -0.8086    1.7389 O.3       1 ATP        -0.2728
     19 C2'         0.7477    0.1630    0.7858 C.3       1 ATP         0.1111
     20 O2'         0.1373   -0.0577    2.0407 O.3       1 ATP        -0.2728
     21 C1'         1.3733    1.5427    0.6747 C.3       1 ATP         0.2693
     22 N9          0.4520    2.5240    0.1767 N.pl3     1 ATP        -0.3222
     23 C8         -0.3054    2.4845   -1.1576 C.ar      1 ATP         0.1640
     24 N7         -1.0755    3.5806   -1.2691 N.2       1 ATP        -0.1640
     25 C5         -0.8043    4.2306   -0.0942 C.ar      1 ATP         0.0820
     26 C6         -1.4324    5.5335    0.2646 C.ar      1 ATP         0.1640
     27 N6         -2.2885    6.1054   -0.5675 N.pl3     1 ATP        -0.4916
     28 N1         -1.0537    6.0229    1.4478 N.pl3     1 ATP        -0.4390
     29 C2         -0.1096    5.3242    2.2908 C.ar      1 ATP         0.5691
     30 N3          0.4468    4.1904    1.9960 N.ar      1 ATP        -0.4283
     31 C4          0.0631    3.6855    0.7877 C.ar      1 ATP         0.2226
     32 H5'1        2.5589    0.5217   -2.5976 H         1 ATP        -0.0393
     33 H5'2        1.1982   -0.4388   -1.9617 H         1 ATP        -0.0393
     34 H4'         3.8040   -0.1399   -0.4044 H         1 ATP        -0.0393
     35 H3'         1.6768   -1.7637    0.2732 H         1 ATP        -0.0393
     36 HO3'        2.2231   -1.2979    2.3952 H         1 ATP         0.2010
     37 H2'         0.0002   -0.0084   -0.0014 H         1 ATP        -0.0393
     38 HO2'       -0.1554   -0.9852    2.0577 H         1 ATP         0.2010
     39 H1'         1.7718    1.9211    1.6015 H         1 ATP        -0.0393
     40 H8         -0.2991    1.7413   -1.9611 H         1 ATP         0.0000
     41 HN61       -2.5167    5.6603   -1.4447 H         1 ATP         0.2048
     42 HN62       -2.7159    6.9882   -0.3270 H         1 ATP         0.2048
     43 H2          0.1059    5.8491    3.2340 H         1 ATP        -0.1292
     44 H44        -1.4532    6.9099    1.7401 H         1 ATP         0.2048
@<TRIPOS>BOND
     1    1    2 2
     2    1    3 1
     3    1    4 1
     4    1    8 1
     5    5    6 2
     6    5    7 1
     7    5    8 1
     8    5   12 1
     9    9   10 2
    10    9   11 1
    11    9   12 1
    12    9   13 1
    13   13   14 1
    14   14   15 1
    15   14   32 1
    16   14   33 1
    17   15   16 1
    18   15   17 1
    19   15   34 1
    20   16   21 1
    21   17   18 1
    22   17   19 1
    23   17   35 1
    24   18   36 1
    25   19   20 1
    26   19   21 1
    27   19   37 1
    28   20   38 1
    29   21   22 1
    30   21   39 1
    31   22   23 ar
    32   22   31 ar
    33   23   24 ar
    34   23   40 1
    35   24   25 ar
    36   25   26 ar
    37   25   31 ar
    38   26   27 1
    39   26   28 ar
    40   27   41 1
    41   27   42 1
    42   28   29 ar
    43   28   44 1
    44   29   30 ar
    45   29   43 1
    46   30   31 ar
@<TRIPOS>SUBSTRUCTURE
     1 ATP         1 GROUP 0 A     ****
@<TRIPOS>MOLECULE
[[[5-(6-amino-1,8-dihydropurine-6,8-diylium-7-id-9-yl)-3,4-dihydroxy-tetrahydrofuran-2-yl]methoxy-oxido-phosphoryl]oxy-oxido-phosphoryl] phosphate
   44    46     1     0     0
SMALL
USER_CHARGES

@<TRIPOS>ATOM
      1 PG          1.2204    3.8376   -6.6287 P.3       1 ATP        -1.1921
      2 O1G         1.6091    4.1909   -5.1970 O.co2     1 ATP         0.3195
      3 O2G         2.2837    4.1714   -7.6697 O.co2     1 ATP         0.3195
      4 O3G        -0.1916    4.2633   -7.0174 O.co2     1 ATP         0.3195
      5 PB          0.2195    1.1748   -5.7563 P.3       1 ATP        -1.1062
      6 O1B        -1.0106    1.9218   -5.2910 O.co2     1 ATP         0.3195
      7 O2B         0.1047   -0.1410   -6.4931 O.co2     1 ATP         0.3195
      8 O3B         1.1505    2.1899   -6.6347 O.3       1 ATP         0.4672
      9 PA          2.7413    0.3775   -4.4298 P.3       1 ATP        -1.1062
     10 O1A         3.6560    1.3416   -5.1533 O.co2     1 ATP         0.3195
     11 O2A         2.7031   -1.0864   -4.8115 O.co2     1 ATP         0.3195
     12 O3A         1.2211    0.9740   -4.4828 O.3       1 ATP         0.4672
     13 O5'         3.0213    0.5153   -2.8245 O.3       1 ATP         0.1618
     14 C5'         2.2816   -0.2918   -1.9206 C.3       1 ATP         0.1504
     15 C4'         2.7248    0.0226   -0.4980 C.3       1 ATP         0.1111
     16 O4'         2.4697    1.4219   -0.2462 O.3       1 ATP        -0.1436
     17 C3'         1.9404   -0.7419    0.5596 C.3       1 ATP         0.1111
     18 O3'         2.7418   -0.8086    1.7389 O.3       1 ATP        -0.2728
     19 C2'         0.7477    0.1630    0.7858 C.3       1 ATP         0.1111
     20 O2'         0.1373   -0.0577    2.0407 O.3       1 ATP        -0.2728
     21 C1'         1.3733    1.5427    0.6747 C.3       1 ATP         0.2693
     22 N9          0.4520    2.5240    0.1767 N.pl3     1 ATP        -0.3222
     23 C8         -0.7463    2.2774   -0.7501 C.ar      1 ATP         0.1640
     24 N7         -1.3714    3.4419   -0.9948 N.2       1 ATP        -0.1640
     25 C5         -0.6104    4.3223   -0.2723 C.ar      1 ATP         0.0820
     26 C6         -0.9062    5.7820   -0.2194 C.ar      1 ATP         0.1640
     27 N6         -1.9385    6.2713   -0.8881 N.pl3     1 ATP        -0.4916
     28 N1         -0.0613    6.4906    0.5336 N.pl3     1 ATP        -0.4390
     29 C2          1.0416    5.8662    1.2291 C.ar      1 ATP         0.5691
     30 N3          1.3146    4.5989    1.1954 N.ar      1 ATP        -0.4283
     31 C4          0.4541    3.8697    0.4273 C.ar      1 ATP         0.2226
     32 H5'1        1.2163   -0.0770   -2.0471 H         1 ATP        -0.0393
     33 H5'2        2.4655   -1.3443   -2.1563 H         1 ATP        -0.0393
     34 H4'         3.8040   -0.1399   -0.4044 H         1 ATP        -0.0393
     35 H3'         1.6768   -1.7637    0.2732 H         1 ATP        -0.0393
     36 HO3'        3.5553   -1.2733    1.4913 H         1 ATP         0.2010
     37 H2'         0.0002   -0.0084   -0.0014 H         1 ATP        -0.0393
     38 HO2'       -0.6132    0.5577    2.1063 H         1 ATP         0.2010
     39 H1'         1.7718    1.9211    1.6015 H         1 ATP        -0.0393
     40 H8         -1.1244    1.3534   -1.1987 H         1 ATP         0.0000
     41 HN61       -2.5259    5.6573   -1.4336 H         1 ATP         0.2048
     42 HN62       -2.1416    7.2600   -0.8539 H         1 ATP         0.2048
     43 H2          1.6509    6.5764    1.8088 H         1 ATP        -0.1292
     44 H44        -0.2190    7.4917    0.6033 H         1 ATP         0.2048
@<TRIPOS>BOND
     1    1    2 2
     2    1    3 1
     3    1    4 1
     4    1    8 1
     5    5    6 2
     6    5    7 1
     7    5    8 1
     8    5   12 1
     9    9   10 2
    10    9   11 1
    11    9   12 1
    12    9   13 1
    13   13   14 1
    14   14   15 1
    15   14   32 1
    16   14   33 1
    17   15   16 1
    18   15   17 1
    19   15   34 1
    20   16   21 1
    21   17   18 1
    22   17   19 1
    23   17   35 1
    24   18   36 1
    25   19   20 1
    26   19   21 1
    27   19   37 1
    28   20   38 1
    29   21   22 1
    30   21   39 1
    31   22   23 ar
    32   22   31 ar
    33   23   24 ar
    34   23   40 1
    35   24   25 ar
    36   25   26 ar
    37   25   31 ar
    38   26   27 1
    39   26   28 ar
    40   27   41 1
    41   27   42 1
    42   28   29 ar
    43   28   44 1
    44   29   30 ar
    45   29   43 1
    46   30   31 ar
@<TRIPOS>SUBSTRUCTURE
     1 ATP         1 GROUP 0 A     ****
@<TRIPOS>MOLECULE
[[[5-(6-amino-1,8-dihydropurine-6,8-diylium-7-id-9-yl)-3,4-dihydroxy-tetrahydrofuran-2-yl]methoxy-oxido-phosphoryl]oxy-oxido-phosphoryl] phosphate
   44    46     1     0     0
SMALL
USER_CHARGES

@<TRIPOS>ATOM
      1 PG          4.2559   -4.0065   -7.6324 P.3       1 ATP        -1.1921
      2 O1G         5.5160   -3.3360   -8.1694 O.co2     1 ATP         0.3195
      3 O2G         4.4762   -5.4126   -7.0848 O.co2     1 ATP         0.3195
      4 O3G         3.0391   -3.8724   -8.5420 O.co2     1 ATP         0.3195
      5 PB          3.4913   -1.5254   -6.1787 P.3       1 ATP        -1.1062
      6 O1B         4.7283   -0.7150   -6.4959 O.co2     1 ATP         0.3195
      7 O2B         2.1823   -1.2680   -6.8912 O.co2     1 ATP         0.3195
      8 O3B         3.8557   -3.1129   -6.3053 O.3       1 ATP         0.4672
      9 PA          2.1375   -2.2725   -3.6560 P.3       1 ATP        -1.1062
     10 O1A         2.4976   -3.7422   -3.6687 O.co2     1 ATP         0.3195
     11 O2A         0.7481   -1.8133   -4.0418 O.co2     1 ATP         0.3195
     12 O3A         3.2287   -1.4684   -4.5683 O.3       1 ATP         0.4672
     13 O5'         2.5245   -1.6648   -2.1878 O.3       1 ATP         0.1618
     14 C5'         2.2816   -0.2918   -1.9206 C.3       1 ATP         0.1504
     15 C4'         2.7248    0.0226   -0.4980 C.3       1 ATP         0.1111
     16 O4'         2.4697    1.4219   -0.2462 O.3       1 ATP        -0.1436
     17 C3'         1.9404   -0.7419    0.5596 C.3       1 ATP         0.1111
     18 O3'         2.7418   -0.8086    1.7389 O.3       1 ATP        -0.2728
     19 C2'         0.7477    0.1630    0.7858 C.3       1 ATP         0.1111
     20 O2'         0.1373   -0.0577    2.0407 O.3       1 ATP        -0.2728
     21 C1'         1.3733    1.5427    0.6747 C.3       1 ATP         0.2693
     22 N9          0.4520    2.5240    0.1767 N.pl3     1 ATP        -0.3222
     23 C8         -1.0660    2.5608    0.3999 C.ar      1 ATP         0.1640
     24 N7         -1.5852    3.6333   -0.2221 N.2       1 ATP        -0.1640
     25 C5         -0.4682    4.1996   -0.7771 C.ar      1 ATP         0.0820
     26 C6         -0.5216    5.4476   -1.5899 C.ar      1 ATP         0.1640
     27 N6         -1.6813    6.0510   -1.7982 N.pl3     1 ATP        -0.4916
     28 N1          0.6621    5.8575   -2.0523 N.pl3     1 ATP        -0.4390
     29 C2          1.8795    5.1301   -1.7717 C.ar      1 ATP         0.5691
     30 N3          1.9458    4.0434   -1.0670 N.ar      1 ATP        -0.4283
     31 C4          0.7388    3.6199   -0.5917 C.ar      1 ATP         0.2226
     32 H5'1        2.8432    0.3119   -2.6398 H         1 ATP        -0.0393
     33 H5'2        1.2128   -0.0927   -2.0428 H         1 ATP        -0.0393
     34 H4'         3.8040   -0.1399   -0.4044 H         1 ATP        -0.0393
     35 H3'         1.6768   -1.7637    0.2732 H         1 ATP        -0.0393
     36 HO3'        2.2231   -1.2979    2.3952 H         1 ATP         0.2010
     37 H2'         0.0002   -0.0084   -0.0014 H         1 ATP        -0.0393
     38 HO2'       -0.1554   -0.9852    2.0577 H         1 ATP         0.2010
     39 H1'         1.7718    1.9211    1.6015 H         1 ATP        -0.0393
     40 H8         -1.7235    1.8833    0.9537 H         1 ATP         0.0000
     41 HN61       -2.5296    5.6672   -1.4072 H         1 ATP         0.2048
     42 HN62       -1.7205    6.8969   -2.3483 H         1 ATP         0.2048
     43 H2          2.7750    5.5878   -2.2190 H         1 ATP        -0.1292
     44 H44         0.6808    6.7046   -2.6128 H         1 ATP         0.2048
@<TRIPOS>BOND
     1    1    2 2
     2    1    3 1
     3    1    4 1
     4    1    8 1
     5    5    6 2
     6    5    7 1
     7    5    8 1
     8    5   12 1
     9    9   10 2
    10    9   11 1
    11    9   12 1
    12    9   13 1
    13   13   14 1
    14   14   15 1
    15   14   32 1
    16   14   33 1
    17   15   16 1
    18   15   17 1
    19   15   34 1
    20   16   21 1
    21   17   18 1
    22   17   19 1
    23   17   35 1
    24   18   36 1
    25   19   20 1
    26   19   21 1
    27   19   37 1
    28   20   38 1
    29   21   22 1
    30   21   39 1
    31   22   23 ar
    32   22   31 ar
    33   23   24 ar
    34   23   40 1
    35   24   25 ar
    36   25   26 ar
    37   25   31 ar
    38   26   27 1
    39   26   28 ar
    40   27   41 1
    41   27   42 1
    42   28   29 ar
    43   28   44 1
    44   29   30 ar
    45   29   43 1
    46   30   31 ar
@<TRIPOS>SUBSTRUCTURE
     1 ATP         1 GROUP 0 A     ****
@<TRIPOS>MOLECULE
[[[5-(6-amino-1,8-dihydropurine-6,8-diylium-7-id-9-yl)-3,4-dihydroxy-tetrahydrofuran-2-yl]methoxy-oxido-phosphoryl]oxy-oxido-phosphoryl] phosphate
   44    46     1     0     0
SMALL
USER_CHARGES

@<TRIPOS>ATOM
      1 PG          4.2012   -5.7393   -4.4952 P.3       1 ATP        -1.1921
      2 O1G         4.2611   -6.6742   -3.2919 O.co2     1 ATP         0.3195
      3 O2G         2.9078   -5.8294   -5.2981 O.co2     1 ATP         0.3195
      4 O3G         5.4670   -5.7319   -5.3461 O.co2     1 ATP         0.3195
      5 PB          5.2408   -3.4814   -2.8596 P.3       1 ATP        -1.1062
      6 O1B         5.2666   -4.1927   -1.5251 O.co2     1 ATP         0.3195
      7 O2B         6.5125   -3.2342   -3.6401 O.co2     1 ATP         0.3195
      8 O3B         4.1630   -4.2292   -3.8334 O.3       1 ATP         0.4672
      9 PA          4.0014   -0.9657   -3.8031 P.3       1 ATP        -1.1062
     10 O1A         2.9295   -1.5891   -4.6702 O.co2     1 ATP         0.3195
     11 O2A         5.2431   -0.3619   -4.4226 O.co2     1 ATP         0.3195
     12 O3A         4.4548   -2.0618   -2.6794 O.3       1 ATP         0.4672
     13 O5'         3.2903    0.1346   -2.8241 O.3       1 ATP         0.1618
     14 C5'         2.2816   -0.2918   -1.9206 C.3       1 ATP         0.1504
     15 C4'         2.7248    0.0226   -0.4980 C.3       1 ATP         0.1111
     16 O4'         2.4697    1.4219   -0.2462 O.3       1 ATP        -0.1436
     17 C3'         1.9404   -0.7419    0.5596 C.3       1 ATP         0.1111
     18 O3'         2.7418   -0.8086    1.7389 O.3       1 ATP        -0.2728
     19 C2'         0.7477    0.1630    0.7858 C.3       1 ATP         0.1111
     20 O2'         0.1373   -0.0577    2.0407 O.3       1 ATP        -0.2728
     21 C1'         1.3733    1.5427    0.6747 C.3       1 ATP         0.2693
     22 N9          0.4520    2.5240    0.1767 N.pl3     1 ATP        -0.3222
     23 C8          0.5793    3.3338   -1.1209 C.ar      1 ATP         0.1640
     24 N7         -0.4807    4.1508   -1.2458 N.2       1 ATP        -0.1640
     25 C5         -1.1921    3.8572   -0.1126 C.ar      1 ATP         0.0820
     26 C6         -2.4855    4.5203    0.2163 C.ar      1 ATP         0.1640
     27 N6         -2.9873    5.4319   -0.6020 N.pl3     1 ATP        -0.4916
     28 N1         -3.0414    4.1119    1.3596 N.pl3     1 ATP        -0.4390
     29 C2         -2.4169    3.1071    2.1904 C.ar      1 ATP         0.5691
     30 N3         -1.2928    2.5191    1.9210 N.ar      1 ATP        -0.4283
     31 C4         -0.7202    2.9326    0.7534 C.ar      1 ATP         0.2226
     32 H5'1        1.3514    0.2330   -2.1577 H         1 ATP        -0.0393
     33 H5'2        2.1280   -1.3678   -2.0460 H         1 ATP        -0.0393
     34 H4'         3.8040   -0.1399   -0.4044 H         1 ATP        -0.0393
     35 H3'         1.6768   -1.7637    0.2732 H         1 ATP        -0.0393
     36 HO3'        3.5553   -1.2733    1.4913 H         1 ATP         0.2010
     37 H2'         0.0002   -0.0084   -0.0014 H         1 ATP        -0.0393
     38 HO2'       -0.1554   -0.9852    2.0577 H         1 ATP         0.2010
     39 H1'         1.7718    1.9211    1.6015 H         1 ATP        -0.0393
     40 H8          1.3565    3.3309   -1.8916 H         1 ATP         0.0000
     41 HN61       -2.4952    5.6785   -1.4487 H         1 ATP         0.2048
     42 HN62       -3.8637    5.8828   -0.3819 H         1 ATP         0.2048
     43 H2         -2.9911    2.8734    3.1000 H         1 ATP        -0.1292
     44 H44        -3.9253    4.5332    1.6302 H         1 ATP         0.2048
@<TRIPOS>BOND
     1    1    2 2
     2    1    3 1
     3    1    4 1
     4    1    8 1
     5    5    6 2
     6    5    7 1
     7    5    8 1
     8    5   12 1
     9    9   10 2
    10    9   11 1
    11    9   12 1
    12    9   13 1
    13   13   14 1
    14   14   15 1
    15   14   32 1
    16   14   33 1
    17   15   16 1
    18   15   17 1
    19   15   34 1
    20   16   21 1
    21   17   18 1
    22   17   19 1
    23   17   35 1
    24   18   36 1
    25   19   20 1
    26   19   21 1
    27   19   37 1
    28   20   38 1
    29   21   22 1
    30   21   39 1
    31   22   23 ar
    32   22   31 ar
    33   23   24 ar
    34   23   40 1
    35   24   25 ar
    36   25   26 ar
    37   25   31 ar
    38   26   27 1
    39   26   28 ar
    40   27   41 1
    41   27   42 1
    42   28   29 ar
    43   28   44 1
    44   29   30 ar
    45   29   43 1
    46   30   31 ar
@<TRIPOS>SUBSTRUCTURE
     1 ATP         1 GROUP 0 A     ****
@<TRIPOS>MOLECULE
[[[5-(6-amino-1,8-dihydropurine-6,8-diylium-7-id-9-yl)-3,4-dihydroxy-tetrahydrofuran-2-yl]methoxy-oxido-phosphoryl]oxy-oxido-phosphoryl] phosphate
   44    46     1     0     0
SMALL
USER_CHARGES

@<TRIPOS>ATOM
      1 PG          1.1253   -4.2780    6.8020 P.3       1 ATP        -1.1921
      2 O1G        -0.3729   -4.1323    6.5570 O.co2     1 ATP         0.3195
      3 O2G         1.5085   -4.4584    8.2670 O.co2     1 ATP         0.3195
      4 O3G         1.9839   -3.2662    6.0504 O.co2     1 ATP         0.3195
      5 PB          1.3596   -6.2085    4.5499 P.3       1 ATP        -1.1062
      6 O1B         2.0344   -5.1956    3.6519 O.co2     1 ATP         0.3195
      7 O2B         1.7016   -7.6794    4.4668 O.co2     1 ATP         0.3195
      8 O3B         1.5120   -5.7200    6.1014 O.3       1 ATP         0.4672
      9 PA         -1.2298   -6.3297    3.1234 P.3       1 ATP        -1.1062
     10 O1A        -2.6211   -5.8404    3.4618 O.co2     1 ATP         0.3195
     11 O2A        -1.0028   -7.7497    2.6519 O.co2     1 ATP         0.3195
     12 O3A        -0.2577   -6.0398    4.4042 O.3       1 ATP         0.4672
     13 O5'        -0.5687   -5.2869    2.0510 O.3       1 ATP         0.1618
     14 C5'        -0.7840   -3.8935    2.2172 C.3       1 ATP         0.1504
     15 C4'        -0.0724   -3.1466    1.1027 C.3       1 ATP         0.1111
     16 O4'        -0.8674   -3.1929   -0.0945 O.3       1 ATP        -0.1436
     17 C3'         0.1338   -1.6715    1.4027 C.3       1 ATP         0.1111
     18 O3'         1.2893   -1.4445    2.1808 O.3       1 ATP        -0.2728
     19 C2'         0.2158   -1.0724    0.0128 C.3       1 ATP         0.1111
     20 O2'         1.5141   -1.2448   -0.5513 O.3       1 ATP        -0.2728
     21 C1'        -0.7897   -1.9176   -0.7583 C.3       1 ATP         0.2693
     22 N9         -2.1040   -1.3333   -0.7704 N.pl3     1 ATP        -0.3222
     23 C8         -3.2124   -1.5345    0.2719 C.ar      1 ATP         0.1640
     24 N7         -4.2964   -0.8234   -0.0828 N.2       1 ATP        -0.1640
     25 C5         -3.8754   -0.2386   -1.2478 C.ar      1 ATP         0.0820
     26 C6         -4.7432    0.6719   -2.0470 C.ar      1 ATP         0.1640
     27 N6         -5.9725    0.9415   -1.6366 N.pl3     1 ATP        -0.4916
     28 N1         -4.1703    1.1517   -3.1536 N.pl3     1 ATP        -0.4390
     29 C2         -2.8174    0.7994   -3.5215 C.ar      1 ATP         0.5691
     30 N3         -2.0475    0.0097   -2.8393 N.ar      1 ATP        -0.4283
     31 C4         -2.6278   -0.4836   -1.7071 C.ar      1 ATP         0.2226
     32 H5'1       -1.8598   -3.6968    2.1850 H         1 ATP        -0.0393
     33 H5'2       -0.3933   -3.5903    3.1931 H         1 ATP        -0.0393
     34 H4'         0.8871   -3.6466    0.8809 H         1 ATP        -0.0393
     35 H3'        -0.7370   -1.2334    1.9869 H         1 ATP        -0.0393
     36 HO3'        1.1625   -1.9325    3.0084 H         1 ATP         0.2010
     37 H2'        -0.0343   -0.0280    0.0196 H         1 ATP        -0.0393
     38 HO2'        2.1443   -0.7955    0.0378 H         1 ATP         0.2010
     39 H1'        -0.5175   -2.1046   -1.7826 H         1 ATP        -0.0393
     40 H8         -3.2310   -2.1319    1.1889 H         1 ATP         0.0000
     41 HN61       -6.3231    0.5316   -0.7829 H         1 ATP         0.2048
     42 HN62       -6.5628    1.5584   -2.1760 H         1 ATP         0.2048
     43 H2         -2.4822    1.2710   -4.4579 H         1 ATP        -0.1292
     44 H44        -4.7200    1.7780   -3.7346 H         1 ATP         0.2048
@<TRIPOS>BOND
     1    1    2 2
     2    1    3 1
     3    1    4 1
     4    1    8 1
     5    5    6 2
     6    5    7 1
     7    5    8 1
     8    5   12 1
     9    9   10 2
    10    9   11 1
    11    9   12 1
    12    9   13 1
    13   13   14 1
    14   14   15 1
    15   14   32 1
    16   14   33 1
    17   15   16 1
    18   15   17 1
    19   15   34 1
    20   16   21 1
    21   17   18 1
    22   17   19 1
    23   17   35 1
    24   18   36 1
    25   19   20 1
    26   19   21 1
    27   19   37 1
    28   20   38 1
    29   21   22 1
    30   21   39 1
    31   22   23 ar
    32   22   31 ar
    33   23   24 ar
    34   23   40 1
    35   24   25 ar
    36   25   26 ar
    37   25   31 ar
    38   26   27 1
    39   26   28 ar
    40   27   41 1
    41   27   42 1
    42   28   29 ar
    43   28   44 1
    44   29   30 ar
    45   29   43 1
    46   30   31 ar
@<TRIPOS>SUBSTRUCTURE
     1 ATP         1 GROUP 0 A     ****
@<TRIPOS>MOLECULE
[[[5-(6-amino-1,8-dihydropurine-6,8-diylium-7-id-9-yl)-3,4-dihydroxy-tetrahydrofuran-2-yl]methoxy-oxido-phosphoryl]oxy-oxido-phosphoryl] phosphate
   44    46     1     0     0
SMALL
USER_CHARGES

@<TRIPOS>ATOM
      1 PG         -2.3888   -6.9890    7.5729 P.3       1 ATP        -1.1921
      2 O1G        -1.2312   -6.7661    8.5404 O.co2     1 ATP         0.3195
      3 O2G        -3.5301   -5.9876    7.7161 O.co2     1 ATP         0.3195
      4 O3G        -2.8407   -8.4413    7.4611 O.co2     1 ATP         0.3195
      5 PB         -0.4943   -7.3634    5.3091 P.3       1 ATP        -1.1062
      6 O1B         0.7821   -7.0553    6.0598 O.co2     1 ATP         0.3195
      7 O2B        -0.8739   -8.7851    4.9600 O.co2     1 ATP         0.3195
      8 O3B        -1.7461   -6.6615    6.0898 O.3       1 ATP         0.4672
      9 PA         -1.7206   -6.2776    2.8449 P.3       1 ATP        -1.1062
     10 O1A        -2.8668   -5.5424    3.5046 O.co2     1 ATP         0.3195
     11 O2A        -1.9499   -7.6006    2.1471 O.co2     1 ATP         0.3195
     12 O3A        -0.5285   -6.4645    3.9466 O.3       1 ATP         0.4672
     13 O5'        -0.9724   -5.2440    1.8220 O.3       1 ATP         0.1618
     14 C5'        -0.7840   -3.8935    2.2172 C.3       1 ATP         0.1504
     15 C4'        -0.0724   -3.1466    1.1027 C.3       1 ATP         0.1111
     16 O4'        -0.8674   -3.1929   -0.0945 O.3       1 ATP        -0.1436
     17 C3'         0.1338   -1.6715    1.4027 C.3       1 ATP         0.1111
     18 O3'         1.2893   -1.4445    2.1808 O.3       1 ATP        -0.2728
     19 C2'         0.2158   -1.0724    0.0128 C.3       1 ATP         0.1111
     20 O2'         1.5141   -1.2448   -0.5513 O.3       1 ATP        -0.2728
     21 C1'        -0.7897   -1.9176   -0.7583 C.3       1 ATP         0.2693
     22 N9         -2.1040   -1.3333   -0.7704 N.pl3     1 ATP        -0.3222
     23 C8         -3.2124   -1.5345    0.2719 C.ar      1 ATP         0.1640
     24 N7         -4.2964   -0.8234   -0.0828 N.2       1 ATP        -0.1640
     25 C5         -3.8754   -0.2386   -1.2478 C.ar      1 ATP         0.0820
     26 C6         -4.7432    0.6719   -2.0470 C.ar      1 ATP         0.1640
     27 N6         -5.9725    0.9415   -1.6366 N.pl3     1 ATP        -0.4916
     28 N1         -4.1703    1.1517   -3.1536 N.pl3     1 ATP        -0.4390
     29 C2         -2.8174    0.7994   -3.5215 C.ar      1 ATP         0.5691
     30 N3         -2.0475    0.0097   -2.8393 N.ar      1 ATP        -0.4283
     31 C4         -2.6278   -0.4836   -1.7071 C.ar      1 ATP         0.2226
     32 H5'1       -1.7618   -3.4448    2.4164 H         1 ATP        -0.0393
     33 H5'2       -0.1874   -3.8744    3.1341 H         1 ATP        -0.0393
     34 H4'         0.8871   -3.6466    0.8809 H         1 ATP        -0.0393
     35 H3'        -0.7370   -1.2334    1.9869 H         1 ATP        -0.0393
     36 HO3'        1.3407   -0.4871    2.3218 H         1 ATP         0.2010
     37 H2'        -0.0343   -0.0280    0.0196 H         1 ATP        -0.0393
     38 HO2'        2.1443   -0.7955    0.0378 H         1 ATP         0.2010
     39 H1'        -0.5175   -2.1046   -1.7826 H         1 ATP        -0.0393
     40 H8         -3.2310   -2.1319    1.1889 H         1 ATP         0.0000
     41 HN61       -6.3231    0.5316   -0.7829 H         1 ATP         0.2048
     42 HN62       -6.5628    1.5584   -2.1760 H         1 ATP         0.2048
     43 H2         -2.4822    1.2710   -4.4579 H         1 ATP        -0.1292
     44 H44        -4.7200    1.7780   -3.7346 H         1 ATP         0.2048
@<TRIPOS>BOND
     1    1    2 2
     2    1    3 1
     3    1    4 1
     4    1    8 1
     5    5    6 2
     6    5    7 1
     7    5    8 1
     8    5   12 1
     9    9   10 2
    10    9   11 1
    11    9   12 1
    12    9   13 1
    13   13   14 1
    14   14   15 1
    15   14   32 1
    16   14   33 1
    17   15   16 1
    18   15   17 1
    19   15   34 1
    20   16   21 1
    21   17   18 1
    22   17   19 1
    23   17   35 1
    24   18   36 1
    25   19   20 1
    26   19   21 1
    27   19   37 1
    28   20   38 1
    29   21   22 1
    30   21   39 1
    31   22   23 ar
    32   22   31 ar
    33   23   24 ar
    34   23   40 1
    35   24   25 ar
    36   25   26 ar
    37   25   31 ar
    38   26   27 1
    39   26   28 ar
    40   27   41 1
    41   27   42 1
    42   28   29 ar
    43   28   44 1
    44   29   30 ar
    45   29   43 1
    46   30   31 ar
@<TRIPOS>SUBSTRUCTURE
     1 ATP         1 GROUP 0 A     ****
@<TRIPOS>MOLECULE
[[[5-(6-amino-1,8-dihydropurine-6,8-diylium-7-id-9-yl)-3,4-dihydroxy-tetrahydrofuran-2-yl]methoxy-oxido-phosphoryl]oxy-oxido-phosphoryl] phosphate
   44    46     1     0     0
SMALL
USER_CHARGES

@<TRIPOS>ATOM
      1 PG          5.9199   -2.1826   -6.8014 P.3       1 ATP        -1.1921
      2 O1G         5.3746   -3.3105   -7.6710 O.co2     1 ATP         0.3195
      3 O2G         6.5688   -1.0443   -7.5817 O.co2     1 ATP         0.3195
      4 O3G         6.7266   -2.6550   -5.5964 O.co2     1 ATP         0.3195
      5 PB          3.4286   -2.1608   -5.1745 P.3       1 ATP        -1.1062
      6 O1B         2.6539   -3.1829   -5.9761 O.co2     1 ATP         0.3195
      7 O2B         4.0522   -2.5181   -3.8438 O.co2     1 ATP         0.3195
      8 O3B         4.5756   -1.5006   -6.1324 O.3       1 ATP         0.4672
      9 PA          2.8629    0.6171   -4.3271 P.3       1 ATP        -1.1062
     10 O1A         1.5890    1.4265   -4.2189 O.co2     1 ATP         0.3195
     11 O2A         4.0749    1.1744   -5.0418 O.co2     1 ATP         0.3195
     12 O3A         2.4941   -0.8371   -4.9742 O.3       1 ATP         0.4672
     13 O5'         3.2903    0.1346   -2.8241 O.3       1 ATP         0.1618
     14 C5'         2.2816   -0.2918   -1.9206 C.3       1 ATP         0.1504
     15 C4'         2.7248    0.0226   -0.4980 C.3       1 ATP         0.1111
     16 O4'         2.4697    1.4219   -0.2462 O.3       1 ATP        -0.1436
     17 C3'         1.9404   -0.7419    0.5596 C.3       1 ATP         0.1111
     18 O3'         2.7418   -0.8086    1.7389 O.3       1 ATP        -0.2728
     19 C2'         0.7477    0.1630    0.7858 C.3       1 ATP         0.1111
     20 O2'         0.1373   -0.0577    2.0407 O.3       1 ATP        -0.2728
     21 C1'         1.3733    1.5427    0.6747 C.3       1 ATP         0.2693
     22 N9          0.4520    2.5240    0.1767 N.pl3     1 ATP        -0.3222
     23 C8          0.5793    3.3338   -1.1209 C.ar      1 ATP         0.1640
     24 N7         -0.4807    4.1508   -1.2458 N.2       1 ATP        -0.1640
     25 C5         -1.1921    3.8572   -0.1126 C.ar      1 ATP         0.0820
     26 C6         -2.4855    4.5203    0.2163 C.ar      1 ATP         0.1640
     27 N6         -2.9873    5.4319   -0.6020 N.pl3     1 ATP        -0.4916
     28 N1         -3.0414    4.1119    1.3596 N.pl3     1 ATP        -0.4390
     29 C2         -2.4169    3.1071    2.1904 C.ar      1 ATP         0.5691
     30 N3         -1.2928    2.5191    1.9210 N.ar      1 ATP        -0.4283
     31 C4         -0.7202    2.9326    0.7534 C.ar      1 ATP         0.2226
     32 H5'1        1.3514    0.2330   -2.1577 H         1 ATP        -0.0393
     33 H5'2        2.1280   -1.3678   -2.0460 H         1 ATP        -0.0393
     34 H4'         3.8040   -0.1399   -0.4044 H         1 ATP        -0.0393
     35 H3'         1.6768   -1.7637    0.2732 H         1 ATP        -0.0393
     36 HO3'        3.5553   -1.2733    1.4913 H         1 ATP         0.2010
     37 H2'         0.0002   -0.0084   -0.0014 H         1 ATP        -0.0393
     38 HO2'       -0.1554   -0.9852    2.0577 H         1 ATP         0.2010
     39 H1'         1.7718    1.9211    1.6015 H         1 ATP        -0.0393
     40 H8          1.3565    3.3309   -1.8916 H         1 ATP         0.0000
     41 HN61       -2.4952    5.6785   -1.4487 H         1 ATP         0.2048
     42 HN62       -3.8637    5.8828   -0.3819 H         1 ATP         0.2048
     43 H2         -2.9911    2.8734    3.1000 H         1 ATP        -0.1292
     44 H44        -3.9253    4.5332    1.6302 H         1 ATP         0.2048
@<TRIPOS>BOND
     1    1    2 2
     2    1    3 1
     3    1    4 1
     4    1    8 1
     5    5    6 2
     6    5    7 1
     7    5    8 1
     8    5   12 1
     9    9   10 2
    10    9   11 1
    11    9   12 1
    12    9   13 1
    13   13   14 1
    14   14   15 1
    15   14   32 1
    16   14   33 1
    17   15   16 1
    18   15   17 1
    19   15   34 1
    20   16   21 1
    21   17   18 1
    22   17   19 1
    23   17   35 1
    24   18   36 1
    25   19   20 1
    26   19   21 1
    27   19   37 1
    28   20   38 1
    29   21   22 1
    30   21   39 1
    31   22   23 ar
    32   22   31 ar
    33   23   24 ar
    34   23   40 1
    35   24   25 ar
    36   25   26 ar
    37   25   31 ar
    38   26   27 1
    39   26   28 ar
    40   27   41 1
    41   27   42 1
    42   28   29 ar
    43   28   44 1
    44   29   30 ar
    45   29   43 1
    46   30   31 ar
@<TRIPOS>SUBSTRUCTURE
     1 ATP         1 GROUP 0 A     ****
@<TRIPOS>MOLECULE
[[[5-(6-amino-1,8-dihydropurine-6,8-diylium-7-id-9-yl)-3,4-dihydroxy-tetrahydrofuran-2-yl]methoxy-oxido-phosphoryl]oxy-oxido-phosphoryl] phosphate
   44    46     1     0     0
SMALL
USER_CHARGES

@<TRIPOS>ATOM
      1 PG          0.5046   -8.3319    7.5986 P.3       1 ATP        -1.1921
      2 O1G         0.9250   -9.6580    6.9737 O.co2     1 ATP         0.3195
      3 O2G         1.6067   -7.6294    8.3844 O.co2     1 ATP         0.3195
      4 O3G        -0.8427   -8.3751    8.3121 O.co2     1 ATP         0.3195
      5 PB         -0.8186   -7.4977    5.0674 P.3       1 ATP        -1.1062
      6 O1B        -0.4055   -8.6823    4.2226 O.co2     1 ATP         0.3195
      7 O2B        -2.2263   -7.3727    5.6060 O.co2     1 ATP         0.3195
      8 O3B         0.2344   -7.3429    6.3069 O.3       1 ATP         0.4672
      9 PA         -0.5242   -4.5704    4.7529 P.3       1 ATP        -1.1062
     10 O1A         0.5074   -4.3598    5.8396 O.co2     1 ATP         0.3195
     11 O2A        -1.9751   -4.2070    4.9829 O.co2     1 ATP         0.3195
     12 O3A        -0.4439   -6.1272    4.2632 O.3       1 ATP         0.4672
     13 O5'         0.0118   -3.8395    3.3916 O.3       1 ATP         0.1618
     14 C5'        -0.7840   -3.8935    2.2172 C.3       1 ATP         0.1504
     15 C4'        -0.0724   -3.1466    1.1027 C.3       1 ATP         0.1111
     16 O4'        -0.8674   -3.1929   -0.0945 O.3       1 ATP        -0.1436
     17 C3'         0.1338   -1.6715    1.4027 C.3       1 ATP         0.1111
     18 O3'         1.2893   -1.4445    2.1808 O.3       1 ATP        -0.2728
     19 C2'         0.2158   -1.0724    0.0128 C.3       1 ATP         0.1111
     20 O2'         1.5141   -1.2448   -0.5513 O.3       1 ATP        -0.2728
     21 C1'        -0.7897   -1.9176   -0.7583 C.3       1 ATP         0.2693
     22 N9         -2.1040   -1.3333   -0.7704 N.pl3     1 ATP        -0.3222
     23 C8         -3.2124   -1.5345    0.2719 C.ar      1 ATP         0.1640
     24 N7         -4.2964   -0.8234   -0.0828 N.2       1 ATP        -0.1640
     25 C5         -3.8754   -0.2386   -1.2478 C.ar      1 ATP         0.0820
     26 C6         -4.7432    0.6719   -2.0470 C.ar      1 ATP         0.1640
     27 N6         -5.9725    0.9415   -1.6366 N.pl3     1 ATP        -0.4916
     28 N1         -4.1703    1.1517   -3.1536 N.pl3     1 ATP        -0.4390
     29 C2         -2.8174    0.7994   -3.5215 C.ar      1 ATP         0.5691
     30 N3         -2.0475    0.0097   -2.8393 N.ar      1 ATP        -0.4283
     31 C4         -2.6278   -0.4836   -1.7071 C.ar      1 ATP         0.2226
     32 H5'1       -0.9348   -4.9415    1.9415 H         1 ATP        -0.0393
     33 H5'2       -1.7548   -3.4350    2.4278 H         1 ATP        -0.0393
     34 H4'         0.8871   -3.6466    0.8809 H         1 ATP        -0.0393
     35 H3'        -0.7370   -1.2334    1.9869 H         1 ATP        -0.0393
     36 HO3'        1.1625   -1.9325    3.0084 H         1 ATP         0.2010
     37 H2'        -0.0343   -0.0280    0.0196 H         1 ATP        -0.0393
     38 HO2'        2.1443   -0.7955    0.0378 H         1 ATP         0.2010
     39 H1'        -0.5175   -2.1046   -1.7826 H         1 ATP        -0.0393
     40 H8         -3.2310   -2.1319    1.1889 H         1 ATP         0.0000
     41 HN61       -6.3231    0.5316   -0.7829 H         1 ATP         0.2048
     42 HN62       -6.5628    1.5584   -2.1760 H         1 ATP         0.2048
     43 H2         -2.4822    1.2710   -4.4579 H         1 ATP        -0.1292
     44 H44        -4.7200    1.7780   -3.7346 H         1 ATP         0.2048
@<TRIPOS>BOND
     1    1    2 2
     2    1    3 1
     3    1    4 1
     4    1    8 1
     5    5    6 2
     6    5    7 1
     7    5    8 1
     8    5   12 1
     9    9   10 2
    10    9   11 1
    11    9   12 1
    12    9   13 1
    13   13   14 1
    14   14   15 1
    15   14   32 1
    16   14   33 1
    17   15   16 1
    18   15   17 1
    19   15   34 1
    20   16   21 1
    21   17   18 1
    22   17   19 1
    23   17   35 1
    24   18   36 1
    25   19   20 1
    26   19   21 1
    27   19   37 1
    28   20   38 1
    29   21   22 1
    30   21   39 1
    31   22   23 ar
    32   22   31 ar
    33   23   24 ar
    34   23   40 1
    35   24   25 ar
    36   25   26 ar
    37   25   31 ar
    38   26   27 1
    39   26   28 ar
    40   27   41 1
    41   27   42 1
    42   28   29 ar
    43   28   44 1
    44   29   30 ar
    45   29   43 1
    46   30   31 ar
@<TRIPOS>SUBSTRUCTURE
     1 ATP         1 GROUP 0 A     ****
@<TRIPOS>MOLECULE
[[[5-(6-amino-1,8-dihydropurine-6,8-diylium-7-id-9-yl)-3,4-dihydroxy-tetrahydrofuran-2-yl]methoxy-oxido-phosphoryl]oxy-oxido-phosphoryl] phosphate
   44    46     1     0     0
SMALL
USER_CHARGES

@<TRIPOS>ATOM
      1 PG          5.0024   -0.9121   -8.4956 P.3       1 ATP        -1.1921
      2 O1G         3.7497   -1.1113   -9.3424 O.co2     1 ATP         0.3195
      3 O2G         5.7007    0.4264   -8.7107 O.co2     1 ATP         0.3195
      4 O3G         5.9427   -2.1127   -8.4764 O.co2     1 ATP         0.3195
      5 PB          3.5943   -1.9266   -6.0786 P.3       1 ATP        -1.1062
      6 O1B         2.2228   -2.0877   -6.6955 O.co2     1 ATP         0.3195
      7 O2B         4.4802   -3.1238   -5.8153 O.co2     1 ATP         0.3195
      8 O3B         4.4369   -0.8301   -6.9486 O.3       1 ATP         0.4672
      9 PA          2.7413    0.3775   -4.4298 P.3       1 ATP        -1.1062
     10 O1A         1.2503    0.2253   -4.6379 O.co2     1 ATP         0.3195
     11 O2A         3.5211    1.4416   -5.1712 O.co2     1 ATP         0.3195
     12 O3A         3.4474   -1.0719   -4.6954 O.3       1 ATP         0.4672
     13 O5'         3.0213    0.5153   -2.8245 O.3       1 ATP         0.1618
     14 C5'         2.2816   -0.2918   -1.9206 C.3       1 ATP         0.1504
     15 C4'         2.7248    0.0226   -0.4980 C.3       1 ATP         0.1111
     16 O4'         2.4697    1.4219   -0.2462 O.3       1 ATP        -0.1436
     17 C3'         1.9404   -0.7419    0.5596 C.3       1 ATP         0.1111
     18 O3'         2.7418   -0.8086    1.7389 O.3       1 ATP        -0.2728
     19 C2'         0.7477    0.1630    0.7858 C.3       1 ATP         0.1111
     20 O2'         0.1373   -0.0577    2.0407 O.3       1 ATP        -0.2728
     21 C1'         1.3733    1.5427    0.6747 C.3       1 ATP         0.2693
     22 N9          0.4520    2.5240    0.1767 N.pl3     1 ATP        -0.3222
     23 C8         -1.0247    2.3053   -0.1800 C.ar      1 ATP         0.1640
     24 N7         -1.5580    3.4612   -0.6116 N.2       1 ATP        -0.1640
     25 C5         -0.4873    4.3110   -0.5222 C.ar      1 ATP         0.0820
     26 C6         -0.5728    5.7505   -0.8981 C.ar      1 ATP         0.1640
     27 N6         -1.7163    6.2514   -1.3385 N.pl3     1 ATP        -0.4916
     28 N1          0.5667    6.4301   -0.7475 N.pl3     1 ATP        -0.4390
     29 C2          1.7697    5.7952   -0.2579 C.ar      1 ATP         0.5691
     30 N3          1.8633    4.5450    0.0742 N.ar      1 ATP        -0.4283
     31 C4          0.7014    3.8457   -0.0776 C.ar      1 ATP         0.2226
     32 H5'1        1.2163   -0.0770   -2.0471 H         1 ATP        -0.0393
     33 H5'2        2.4655   -1.3443   -2.1563 H         1 ATP        -0.0393
     34 H4'         3.8040   -0.1399   -0.4044 H         1 ATP        -0.0393
     35 H3'         1.6768   -1.7637    0.2732 H         1 ATP        -0.0393
     36 HO3'        2.2231   -1.2979    2.3952 H         1 ATP         0.2010
     37 H2'         0.0002   -0.0084   -0.0014 H         1 ATP        -0.0393
     38 HO2'       -0.1554   -0.9852    2.0577 H         1 ATP         0.2010
     39 H1'         1.7718    1.9211    1.6015 H         1 ATP        -0.0393
     40 H8         -1.6458    1.4054   -0.1318 H         1 ATP         0.0000
     41 HN61       -2.5307    5.6598   -1.4199 H         1 ATP         0.2048
     42 HN62       -1.7773    7.2266   -1.5938 H         1 ATP         0.2048
     43 H2          2.6279    6.4808   -0.1872 H         1 ATP        -0.1292
     44 H44         0.5621    7.4166   -0.9900 H         1 ATP         0.2048
@<TRIPOS>BOND
     1    1    2 2
     2    1    3 1
     3    1    4 1
     4    1    8 1
     5    5    6 2
     6    5    7 1
     7    5    8 1
     8    5   12 1
     9    9   10 2
    10    9   11 1
    11    9   12 1
    12    9   13 1
    13   13   14 1
    14   14   15 1
    15   14   32 1
    16   14   33 1
    17   15   16 1
    18   15   17 1
    19   15   34 1
    20   16   21 1
    21   17   18 1
    22   17   19 1
    23   17   35 1
    24   18   36 1
    25   19   20 1
    26   19   21 1
    27   19   37 1
    28   20   38 1
    29   21   22 1
    30   21   39 1
    31   22   23 ar
    32   22   31 ar
    33   23   24 ar
    34   23   40 1
    35   24   25 ar
    36   25   26 ar
    37   25   31 ar
    38   26   27 1
    39   26   28 ar
    40   27   41 1
    41   27   42 1
    42   28   29 ar
    43   28   44 1
    44   29   30 ar
    45   29   43 1
    46   30   31 ar
@<TRIPOS>SUBSTRUCTURE
     1 ATP         1 GROUP 0 A     ****
@<TRIPOS>MOLECULE
[[[5-(6-amino-1,8-dihydropurine-6,8-diylium-7-id-9-yl)-3,4-dihydroxy-tetrahydrofuran-2-yl]methoxy-oxido-phosphoryl]oxy-oxido-phosphoryl] phosphate
   44    46     1     0     0
SMALL
USER_CHARGES

@<TRIPOS>ATOM
      1 PG         -4.6495   -9.7282    3.3720 P.3       1 ATP        -1.1921
      2 O1G        -5.9817   -9.5114    2.6619 O.co2     1 ATP         0.3195
      3 O2G        -3.7957  -10.8447    2.7802 O.co2     1 ATP         0.3195
      4 O3G        -4.7481   -9.7551    4.8937 O.co2     1 ATP         0.3195
      5 PB         -4.1366   -6.7976    3.4180 P.3       1 ATP        -1.1062
      6 O1B        -5.3466   -6.3673    2.6191 O.co2     1 ATP         0.3195
      7 O2B        -4.0872   -6.6238    4.9196 O.co2     1 ATP         0.3195
      8 O3B        -3.7942   -8.3538    3.0571 O.3       1 ATP         0.4672
      9 PA         -1.2298   -6.3297    3.1234 P.3       1 ATP        -1.1062
     10 O1A        -0.8462   -7.7349    2.7136 O.co2     1 ATP         0.3195
     11 O2A        -0.9723   -5.8371    4.5308 O.co2     1 ATP         0.3195
     12 O3A        -2.8087   -6.1043    2.7686 O.3       1 ATP         0.4672
     13 O5'        -0.5687   -5.2869    2.0510 O.3       1 ATP         0.1618
     14 C5'        -0.7840   -3.8935    2.2172 C.3       1 ATP         0.1504
     15 C4'        -0.0724   -3.1466    1.1027 C.3       1 ATP         0.1111
     16 O4'        -0.8674   -3.1929   -0.0945 O.3       1 ATP        -0.1436
     17 C3'         0.1338   -1.6715    1.4027 C.3       1 ATP         0.1111
     18 O3'         1.2893   -1.4445    2.1808 O.3       1 ATP        -0.2728
     19 C2'         0.2158   -1.0724    0.0128 C.3       1 ATP         0.1111
     20 O2'         1.5141   -1.2448   -0.5513 O.3       1 ATP        -0.2728
     21 C1'        -0.7897   -1.9176   -0.7583 C.3       1 ATP         0.2693
     22 N9         -2.1040   -1.3333   -0.7704 N.pl3     1 ATP        -0.3222
     23 C8         -3.2124   -1.5345    0.2719 C.ar      1 ATP         0.1640
     24 N7         -4.2964   -0.8234   -0.0828 N.2       1 ATP        -0.1640
     25 C5         -3.8754   -0.2386   -1.2478 C.ar      1 ATP         0.0820
     26 C6         -4.7432    0.6719   -2.0470 C.ar      1 ATP         0.1640
     27 N6         -5.9725    0.9415   -1.6366 N.pl3     1 ATP        -0.4916
     28 N1         -4.1703    1.1517   -3.1536 N.pl3     1 ATP        -0.4390
     29 C2         -2.8174    0.7994   -3.5215 C.ar      1 ATP         0.5691
     30 N3         -2.0475    0.0097   -2.8393 N.ar      1 ATP        -0.4283
     31 C4         -2.6278   -0.4836   -1.7071 C.ar      1 ATP         0.2226
     32 H5'1       -1.8598   -3.6968    2.1850 H         1 ATP        -0.0393
     33 H5'2       -0.3933   -3.5903    3.1931 H         1 ATP        -0.0393
     34 H4'         0.8871   -3.6466    0.8809 H         1 ATP        -0.0393
     35 H3'        -0.7370   -1.2334    1.9869 H         1 ATP        -0.0393
     36 HO3'        1.1625   -1.9325    3.0084 H         1 ATP         0.2010
     37 H2'        -0.0343   -0.0280    0.0196 H         1 ATP        -0.0393
     38 HO2'        2.1443   -0.7955    0.0378 H         1 ATP         0.2010
     39 H1'        -0.5175   -2.1046   -1.7826 H         1 ATP        -0.0393
     40 H8         -3.2310   -2.1319    1.1889 H         1 ATP         0.0000
     41 HN61       -6.3231    0.5316   -0.7829 H         1 ATP         0.2048
     42 HN62       -6.5628    1.5584   -2.1760 H         1 ATP         0.2048
     43 H2         -2.4822    1.2710   -4.4579 H         1 ATP        -0.1292
     44 H44        -4.7200    1.7780   -3.7346 H         1 ATP         0.2048
@<TRIPOS>BOND
     1    1    2 2
     2    1    3 1
     3    1    4 1
     4    1    8 1
     5    5    6 2
     6    5    7 1
     7    5    8 1
     8    5   12 1
     9    9   10 2
    10    9   11 1
    11    9   12 1
    12    9   13 1
    13   13   14 1
    14   14   15 1
    15   14   32 1
    16   14   33 1
    17   15   16 1
    18   15   17 1
    19   15   34 1
    20   16   21 1
    21   17   18 1
    22   17   19 1
    23   17   35 1
    24   18   36 1
    25   19   20 1
    26   19   21 1
    27   19   37 1
    28   20   38 1
    29   21   22 1
    30   21   39 1
    31   22   23 ar
    32   22   31 ar
    33   23   24 ar
    34   23   40 1
    35   24   25 ar
    36   25   26 ar
    37   25   31 ar
    38   26   27 1
    39   26   28 ar
    40   27   41 1
    41   27   42 1
    42   28   29 ar
    43   28   44 1
    44   29   30 ar
    45   29   43 1
    46   30   31 ar
@<TRIPOS>SUBSTRUCTURE
     1 ATP         1 GROUP 0 A     ****
@<TRIPOS>MOLECULE
[[[5-(6-amino-1,8-dihydropurine-6,8-diylium-7-id-9-yl)-3,4-dihydroxy-tetrahydrofuran-2-yl]methoxy-oxido-phosphoryl]oxy-oxido-phosphoryl] phosphate
   44    46     1     0     0
SMALL
USER_CHARGES

@<TRIPOS>ATOM
      1 PG          2.4667   -7.2270    5.0482 P.3       1 ATP        -1.1921
      2 O1G         2.3430   -6.4416    3.7467 O.co2     1 ATP         0.3195
      3 O2G         3.4934   -6.6660    6.0263 O.co2     1 ATP         0.3195
      4 O3G         2.5399   -8.7390    4.8624 O.co2     1 ATP         0.3195
      5 PB         -0.4943   -7.3634    5.3091 P.3       1 ATP        -1.1062
      6 O1B        -0.5368   -8.8256    4.9250 O.co2     1 ATP         0.3195
      7 O2B        -1.4833   -6.7837    6.2956 O.co2     1 ATP         0.3195
      8 O3B         1.0186   -6.9927    5.8019 O.3       1 ATP         0.4672
      9 PA         -1.7206   -6.2776    2.8449 P.3       1 ATP        -1.1062
     10 O1A        -2.8668   -5.5424    3.5046 O.co2     1 ATP         0.3195
     11 O2A        -1.9499   -7.6006    2.1471 O.co2     1 ATP         0.3195
     12 O3A        -0.5285   -6.4645    3.9466 O.3       1 ATP         0.4672
     13 O5'        -0.9724   -5.2440    1.8220 O.3       1 ATP         0.1618
     14 C5'        -0.7840   -3.8935    2.2172 C.3       1 ATP         0.1504
     15 C4'        -0.0724   -3.1466    1.1027 C.3       1 ATP         0.1111
     16 O4'        -0.8674   -3.1929   -0.0945 O.3       1 ATP        -0.1436
     17 C3'         0.1338   -1.6715    1.4027 C.3       1 ATP         0.1111
     18 O3'         1.2893   -1.4445    2.1808 O.3       1 ATP        -0.2728
     19 C2'         0.2158   -1.0724    0.0128 C.3       1 ATP         0.1111
     20 O2'         1.5141   -1.2448   -0.5513 O.3       1 ATP        -0.2728
     21 C1'        -0.7897   -1.9176   -0.7583 C.3       1 ATP         0.2693
     22 N9         -2.1040   -1.3333   -0.7704 N.pl3     1 ATP        -0.3222
     23 C8         -3.2124   -1.5345    0.2719 C.ar      1 ATP         0.1640
     24 N7         -4.2964   -0.8234   -0.0828 N.2       1 ATP        -0.1640
     25 C5         -3.8754   -0.2386   -1.2478 C.ar      1 ATP         0.0820
     26 C6         -4.7432    0.6719   -2.0470 C.ar      1 ATP         0.1640
     27 N6         -5.9725    0.9415   -1.6366 N.pl3     1 ATP        -0.4916
     28 N1         -4.1703    1.1517   -3.1536 N.pl3     1 ATP        -0.4390
     29 C2         -2.8174    0.7994   -3.5215 C.ar      1 ATP         0.5691
     30 N3         -2.0475    0.0097   -2.8393 N.ar      1 ATP        -0.4283
     31 C4         -2.6278   -0.4836   -1.7071 C.ar      1 ATP         0.2226
     32 H5'1       -1.7618   -3.4448    2.4164 H         1 ATP        -0.0393
     33 H5'2       -0.1874   -3.8744    3.1341 H         1 ATP        -0.0393
     34 H4'         0.8871   -3.6466    0.8809 H         1 ATP        -0.0393
     35 H3'        -0.7370   -1.2334    1.9869 H         1 ATP        -0.0393
     36 HO3'        1.3407   -0.4871    2.3218 H         1 ATP         0.2010
     37 H2'        -0.0343   -0.0280    0.0196 H         1 ATP        -0.0393
     38 HO2'        2.1443   -0.7955    0.0378 H         1 ATP         0.2010
     39 H1'        -0.5175   -2.1046   -1.7826 H         1 ATP        -0.0393
     40 H8         -3.2310   -2.1319    1.1889 H         1 ATP         0.0000
     41 HN61       -6.3231    0.5316   -0.7829 H         1 ATP         0.2048
     42 HN62       -6.5628    1.5584   -2.1760 H         1 ATP         0.2048
     43 H2         -2.4822    1.2710   -4.4579 H         1 ATP        -0.1292
     44 H44        -4.7200    1.7780   -3.7346 H         1 ATP         0.2048
@<TRIPOS>BOND
     1    1    2 2
     2    1    3 1
     3    1    4 1
     4    1    8 1
     5    5    6 2
     6    5    7 1
     7    5    8 1
     8    5   12 1
     9    9   10 2
    10    9   11 1
    11    9   12 1
    12    9   13 1
    13   13   14 1
    14   14   15 1
    15   14   32 1
    16   14   33 1
    17   15   16 1
    18   15   17 1
    19   15   34 1
    20   16   21 1
    21   17   18 1
    22   17   19 1
    23   17   35 1
    24   18   36 1
    25   19   20 1
    26   19   21 1
    27   19   37 1
    28   20   38 1
    29   21   22 1
    30   21   39 1
    31   22   23 ar
    32   22   31 ar
    33   23   24 ar
    34   23   40 1
    35   24   25 ar
    36   25   26 ar
    37   25   31 ar
    38   26   27 1
    39   26   28 ar
    40   27   41 1
    41   27   42 1
    42   28   29 ar
    43   28   44 1
    44   29   30 ar
    45   29   43 1
    46   30   31 ar
@<TRIPOS>SUBSTRUCTURE
     1 ATP         1 GROUP 0 A     ****
@<TRIPOS>MOLECULE
[[[5-(6-amino-1,8-dihydropurine-6,8-diylium-7-id-9-yl)-3,4-dihydroxy-tetrahydrofuran-2-yl]methoxy-oxido-phosphoryl]oxy-oxido-phosphoryl] phosphate
   44    46     1     0     0
SMALL
USER_CHARGES

@<TRIPOS>ATOM
      1 PG          4.1434   -0.4911   -8.2916 P.3       1 ATP        -1.1921
      2 O1G         4.3812   -1.8474   -8.9471 O.co2     1 ATP         0.3195
      3 O2G         2.8754    0.2180   -8.7555 O.co2     1 ATP         0.3195
      4 O3G         5.3773    0.4037   -8.2385 O.co2     1 ATP         0.3195
      5 PB          4.7930   -1.6123   -5.6130 P.3       1 ATP        -1.1062
      6 O1B         4.9599   -3.0559   -6.0324 O.co2     1 ATP         0.3195
      7 O2B         5.9917   -0.7402   -5.3134 O.co2     1 ATP         0.3195
      8 O3B         3.8502   -0.8518   -6.7093 O.3       1 ATP         0.4672
      9 PA          3.9665   -2.1124   -2.8163 P.3       1 ATP        -1.1062
     10 O1A         5.0486   -1.2960   -2.1438 O.co2     1 ATP         0.3195
     11 O2A         4.0512   -3.6227   -2.8595 O.co2     1 ATP         0.3195
     12 O3A         3.7733   -1.5533   -4.3394 O.3       1 ATP         0.4672
     13 O5'         2.5245   -1.6648   -2.1878 O.3       1 ATP         0.1618
     14 C5'         2.2816   -0.2918   -1.9206 C.3       1 ATP         0.1504
     15 C4'         2.7248    0.0226   -0.4980 C.3       1 ATP         0.1111
     16 O4'         2.4697    1.4219   -0.2462 O.3       1 ATP        -0.1436
     17 C3'         1.9404   -0.7419    0.5596 C.3       1 ATP         0.1111
     18 O3'         2.7418   -0.8086    1.7389 O.3       1 ATP        -0.2728
     19 C2'         0.7477    0.1630    0.7858 C.3       1 ATP         0.1111
     20 O2'         0.1373   -0.0577    2.0407 O.3       1 ATP        -0.2728
     21 C1'         1.3733    1.5427    0.6747 C.3       1 ATP         0.2693
     22 N9          0.4520    2.5240    0.1767 N.pl3     1 ATP        -0.3222
     23 C8         -0.3054    2.4845   -1.1576 C.ar      1 ATP         0.1640
     24 N7         -1.0755    3.5806   -1.2691 N.2       1 ATP        -0.1640
     25 C5         -0.8043    4.2306   -0.0942 C.ar      1 ATP         0.0820
     26 C6         -1.4324    5.5335    0.2646 C.ar      1 ATP         0.1640
     27 N6         -2.2885    6.1054   -0.5675 N.pl3     1 ATP        -0.4916
     28 N1         -1.0537    6.0229    1.4478 N.pl3     1 ATP        -0.4390
     29 C2         -0.1096    5.3242    2.2908 C.ar      1 ATP         0.5691
     30 N3          0.4468    4.1904    1.9960 N.ar      1 ATP        -0.4283
     31 C4          0.0631    3.6855    0.7877 C.ar      1 ATP         0.2226
     32 H5'1        2.8432    0.3119   -2.6398 H         1 ATP        -0.0393
     33 H5'2        1.2128   -0.0927   -2.0428 H         1 ATP        -0.0393
     34 H4'         3.8040   -0.1399   -0.4044 H         1 ATP        -0.0393
     35 H3'         1.6768   -1.7637    0.2732 H         1 ATP        -0.0393
     36 HO3'        2.2231   -1.2979    2.3952 H         1 ATP         0.2010
     37 H2'         0.0002   -0.0084   -0.0014 H         1 ATP        -0.0393
     38 HO2'       -0.1554   -0.9852    2.0577 H         1 ATP         0.2010
     39 H1'         1.7718    1.9211    1.6015 H         1 ATP        -0.0393
     40 H8         -0.2991    1.7413   -1.9611 H         1 ATP         0.0000
     41 HN61       -2.5167    5.6603   -1.4447 H         1 ATP         0.2048
     42 HN62       -2.7159    6.9882   -0.3270 H         1 ATP         0.2048
     43 H2          0.1059    5.8491    3.2340 H         1 ATP        -0.1292
     44 H44        -1.4532    6.9099    1.7401 H         1 ATP         0.2048
@<TRIPOS>BOND
     1    1    2 2
     2    1    3 1
     3    1    4 1
     4    1    8 1
     5    5    6 2
     6    5    7 1
     7    5    8 1
     8    5   12 1
     9    9   10 2
    10    9   11 1
    11    9   12 1
    12    9   13 1
    13   13   14 1
    14   14   15 1
    15   14   32 1
    16   14   33 1
    17   15   16 1
    18   15   17 1
    19   15   34 1
    20   16   21 1
    21   17   18 1
    22   17   19 1
    23   17   35 1
    24   18   36 1
    25   19   20 1
    26   19   21 1
    27   19   37 1
    28   20   38 1
    29   21   22 1
    30   21   39 1
    31   22   23 ar
    32   22   31 ar
    33   23   24 ar
    34   23   40 1
    35   24   25 ar
    36   25   26 ar
    37   25   31 ar
    38   26   27 1
    39   26   28 ar
    40   27   41 1
    41   27   42 1
    42   28   29 ar
    43   28   44 1
    44   29   30 ar
    45   29   43 1
    46   30   31 ar
@<TRIPOS>SUBSTRUCTURE
     1 ATP         1 GROUP 0 A     ****
@<TRIPOS>MOLECULE
[[[5-(6-amino-1,8-dihydropurine-6,8-diylium-7-id-9-yl)-3,4-dihydroxy-tetrahydrofuran-2-yl]methoxy-oxido-phosphoryl]oxy-oxido-phosphoryl] phosphate
   44    46     1     0     0
SMALL
USER_CHARGES

@<TRIPOS>ATOM
      1 PG         -0.8453  -10.3180    5.3379 P.3       1 ATP        -1.1921
      2 O1G        -2.0242  -10.1959    6.2976 O.co2     1 ATP         0.3195
      3 O2G        -1.0810  -11.2698    4.1699 O.co2     1 ATP         0.3195
      4 O3G         0.5055  -10.4919    6.0244 O.co2     1 ATP         0.3195
      5 PB         -0.4943   -7.3634    5.3091 P.3       1 ATP        -1.1062
      6 O1B        -1.6978   -7.0079    6.1533 O.co2     1 ATP         0.3195
      7 O2B         0.9047   -7.3197    5.8820 O.co2     1 ATP         0.3195
      8 O3B        -0.7404   -8.8305    4.6337 O.3       1 ATP         0.4672
      9 PA         -1.7206   -6.2776    2.8449 P.3       1 ATP        -1.1062
     10 O1A        -2.8668   -5.5424    3.5046 O.co2     1 ATP         0.3195
     11 O2A        -1.9499   -7.6006    2.1471 O.co2     1 ATP         0.3195
     12 O3A        -0.5285   -6.4645    3.9466 O.3       1 ATP         0.4672
     13 O5'        -0.9724   -5.2440    1.8220 O.3       1 ATP         0.1618
     14 C5'        -0.7840   -3.8935    2.2172 C.3       1 ATP         0.1504
     15 C4'        -0.0724   -3.1466    1.1027 C.3       1 ATP         0.1111
     16 O4'        -0.8674   -3.1929   -0.0945 O.3       1 ATP        -0.1436
     17 C3'         0.1338   -1.6715    1.4027 C.3       1 ATP         0.1111
     18 O3'         1.2893   -1.4445    2.1808 O.3       1 ATP        -0.2728
     19 C2'         0.2158   -1.0724    0.0128 C.3       1 ATP         0.1111
     20 O2'         1.5141   -1.2448   -0.5513 O.3       1 ATP        -0.2728
     21 C1'        -0.7897   -1.9176   -0.7583 C.3       1 ATP         0.2693
     22 N9         -2.1040   -1.3333   -0.7704 N.pl3     1 ATP        -0.3222
     23 C8         -3.2124   -1.5345    0.2719 C.ar      1 ATP         0.1640
     24 N7         -4.2964   -0.8234   -0.0828 N.2       1 ATP        -0.1640
     25 C5         -3.8754   -0.2386   -1.2478 C.ar      1 ATP         0.0820
     26 C6         -4.7432    0.6719   -2.0470 C.ar      1 ATP         0.1640
     27 N6         -5.9725    0.9415   -1.6366 N.pl3     1 ATP        -0.4916
     28 N1         -4.1703    1.1517   -3.1536 N.pl3     1 ATP        -0.4390
     29 C2         -2.8174    0.7994   -3.5215 C.ar      1 ATP         0.5691
     30 N3         -2.0475    0.0097   -2.8393 N.ar      1 ATP        -0.4283
     31 C4         -2.6278   -0.4836   -1.7071 C.ar      1 ATP         0.2226
     32 H5'1       -1.7618   -3.4448    2.4164 H         1 ATP        -0.0393
     33 H5'2       -0.1874   -3.8744    3.1341 H         1 ATP        -0.0393
     34 H4'         0.8871   -3.6466    0.8809 H         1 ATP        -0.0393
     35 H3'        -0.7370   -1.2334    1.9869 H         1 ATP        -0.0393
     36 HO3'        1.3407   -0.4871    2.3218 H         1 ATP         0.2010
     37 H2'        -0.0343   -0.0280    0.0196 H         1 ATP        -0.0393
     38 HO2'        2.1443   -0.7955    0.0378 H         1 ATP         0.2010
     39 H1'        -0.5175   -2.1046   -1.7826 H         1 ATP        -0.0393
     40 H8         -3.2310   -2.1319    1.1889 H         1 ATP         0.0000
     41 HN61       -6.3231    0.5316   -0.7829 H         1 ATP         0.2048
     42 HN62       -6.5628    1.5584   -2.1760 H         1 ATP         0.2048
     43 H2         -2.4822    1.2710   -4.4579 H         1 ATP        -0.1292
     44 H44        -4.7200    1.7780   -3.7346 H         1 ATP         0.2048
@<TRIPOS>BOND
     1    1    2 2
     2    1    3 1
     3    1    4 1
     4    1    8 1
     5    5    6 2
     6    5    7 1
     7    5    8 1
     8    5   12 1
     9    9   10 2
    10    9   11 1
    11    9   12 1
    12    9   13 1
    13   13   14 1
    14   14   15 1
    15   14   32 1
    16   14   33 1
    17   15   16 1
    18   15   17 1
    19   15   34 1
    20   16   21 1
    21   17   18 1
    22   17   19 1
    23   17   35 1
    24   18   36 1
    25   19   20 1
    26   19   21 1
    27   19   37 1
    28   20   38 1
    29   21   22 1
    30   21   39 1
    31   22   23 ar
    32   22   31 ar
    33   23   24 ar
    34   23   40 1
    35   24   25 ar
    36   25   26 ar
    37   25   31 ar
    38   26   27 1
    39   26   28 ar
    40   27   41 1
    41   27   42 1
    42   28   29 ar
    43   28   44 1
    44   29   30 ar
    45   29   43 1
    46   30   31 ar
@<TRIPOS>SUBSTRUCTURE
     1 ATP         1 GROUP 0 A     ****
@<TRIPOS>MOLECULE
[[[5-(6-amino-1,8-dihydropurine-6,8-diylium-7-id-9-yl)-3,4-dihydroxy-tetrahydrofuran-2-yl]methoxy-oxido-phosphoryl]oxy-oxido-phosphoryl] phosphate
   44    46     1     0     0
SMALL
USER_CHARGES

@<TRIPOS>ATOM
      1 PG         -0.9863   -1.5533   -7.2658 P.3       1 ATP        -1.1921
      2 O1G        -2.4395   -1.2152   -6.9499 O.co2     1 ATP         0.3195
      3 O2G        -0.2040   -0.4184   -7.9182 O.co2     1 ATP         0.3195
      4 O3G        -0.7897   -2.9119   -7.9302 O.co2     1 ATP         0.3195
      5 PB         -0.6299   -2.7736   -4.5755 P.3       1 ATP        -1.1062
      6 O1B        -1.9917   -2.4295   -4.0146 O.co2     1 ATP         0.3195
      7 O2B        -0.3028   -4.1780   -5.0315 O.co2     1 ATP         0.3195
      8 O3B        -0.2813   -1.7331   -5.7858 O.3       1 ATP         0.4672
      9 PA          2.1375   -2.2725   -3.6560 P.3       1 ATP        -1.1062
     10 O1A         2.5092   -1.2469   -4.7046 O.co2     1 ATP         0.3195
     11 O2A         2.6337   -3.6984   -3.7587 O.co2     1 ATP         0.3195
     12 O3A         0.5101   -2.2919   -3.5107 O.3       1 ATP         0.4672
     13 O5'         2.5245   -1.6648   -2.1878 O.3       1 ATP         0.1618
     14 C5'         2.2816   -0.2918   -1.9206 C.3       1 ATP         0.1504
     15 C4'         2.7248    0.0226   -0.4980 C.3       1 ATP         0.1111
     16 O4'         2.4697    1.4219   -0.2462 O.3       1 ATP        -0.1436
     17 C3'         1.9404   -0.7419    0.5596 C.3       1 ATP         0.1111
     18 O3'         2.7418   -0.8086    1.7389 O.3       1 ATP        -0.2728
     19 C2'         0.7477    0.1630    0.7858 C.3       1 ATP         0.1111
     20 O2'         0.1373   -0.0577    2.0407 O.3       1 ATP        -0.2728
     21 C1'         1.3733    1.5427    0.6747 C.3       1 ATP         0.2693
     22 N9          0.4520    2.5240    0.1767 N.pl3     1 ATP        -0.3222
     23 C8         -1.0660    2.5608    0.3999 C.ar      1 ATP         0.1640
     24 N7         -1.5852    3.6333   -0.2221 N.2       1 ATP        -0.1640
     25 C5         -0.4682    4.1996   -0.7771 C.ar      1 ATP         0.0820
     26 C6         -0.5216    5.4476   -1.5899 C.ar      1 ATP         0.1640
     27 N6         -1.6813    6.0510   -1.7982 N.pl3     1 ATP        -0.4916
     28 N1          0.6621    5.8575   -2.0523 N.pl3     1 ATP        -0.4390
     29 C2          1.8795    5.1301   -1.7717 C.ar      1 ATP         0.5691
     30 N3          1.9458    4.0434   -1.0670 N.ar      1 ATP        -0.4283
     31 C4          0.7388    3.6199   -0.5917 C.ar      1 ATP         0.2226
     32 H5'1        2.8432    0.3119   -2.6398 H         1 ATP        -0.0393
     33 H5'2        1.2128   -0.0927   -2.0428 H         1 ATP        -0.0393
     34 H4'         3.8040   -0.1399   -0.4044 H         1 ATP        -0.0393
     35 H3'         1.6768   -1.7637    0.2732 H         1 ATP        -0.0393
     36 HO3'        2.2231   -1.2979    2.3952 H         1 ATP         0.2010
     37 H2'         0.0002   -0.0084   -0.0014 H         1 ATP        -0.0393
     38 HO2'       -0.1554   -0.9852    2.0577 H         1 ATP         0.2010
     39 H1'         1.7718    1.9211    1.6015 H         1 ATP        -0.0393
     40 H8         -1.7235    1.8833    0.9537 H         1 ATP         0.0000
     41 HN61       -2.5296    5.6672   -1.4072 H         1 ATP         0.2048
     42 HN62       -1.7205    6.8969   -2.3483 H         1 ATP         0.2048
     43 H2          2.7750    5.5878   -2.2190 H         1 ATP        -0.1292
     44 H44         0.6808    6.7046   -2.6128 H         1 ATP         0.2048
@<TRIPOS>BOND
     1    1    2 2
     2    1    3 1
     3    1    4 1
     4    1    8 1
     5    5    6 2
     6    5    7 1
     7    5    8 1
     8    5   12 1
     9    9   10 2
    10    9   11 1
    11    9   12 1
    12    9   13 1
    13   13   14 1
    14   14   15 1
    15   14   32 1
    16   14   33 1
    17   15   16 1
    18   15   17 1
    19   15   34 1
    20   16   21 1
    21   17   18 1
    22   17   19 1
    23   17   35 1
    24   18   36 1
    25   19   20 1
    26   19   21 1
    27   19   37 1
    28   20   38 1
    29   21   22 1
    30   21   39 1
    31   22   23 ar
    32   22   31 ar
    33   23   24 ar
    34   23   40 1
    35   24   25 ar
    36   25   26 ar
    37   25   31 ar
    38   26   27 1
    39   26   28 ar
    40   27   41 1
    41   27   42 1
    42   28   29 ar
    43   28   44 1
    44   29   30 ar
    45   29   43 1
    46   30   31 ar
@<TRIPOS>SUBSTRUCTURE
     1 ATP         1 GROUP 0 A     ****
@<TRIPOS>MOLECULE
[[[5-(6-amino-1,8-dihydropurine-6,8-diylium-7-id-9-yl)-3,4-dihydroxy-tetrahydrofuran-2-yl]methoxy-oxido-phosphoryl]oxy-oxido-phosphoryl] phosphate
   44    46     1     0     0
SMALL
USER_CHARGES

@<TRIPOS>ATOM
      1 PG         -2.0366   -3.3591   -5.2972 P.3       1 ATP        -1.1921
      2 O1G        -2.6781   -3.3078   -3.9146 O.co2     1 ATP         0.3195
      3 O2G        -2.7082   -2.4671   -6.3358 O.co2     1 ATP         0.3195
      4 O3G        -1.7237   -4.7680   -5.7903 O.co2     1 ATP         0.3195
      5 PB          0.6796   -3.1317   -4.1036 P.3       1 ATP        -1.1062
      6 O1B         0.2537   -2.9435   -2.6645 O.co2     1 ATP         0.3195
      7 O2B         1.2271   -4.4542   -4.5917 O.co2     1 ATP         0.3195
      8 O3B        -0.5500   -2.6791   -5.0795 O.3       1 ATP         0.4672
      9 PA          3.2534   -1.6812   -3.9408 P.3       1 ATP        -1.1062
     10 O1A         3.7301   -0.3551   -4.4921 O.co2     1 ATP         0.3195
     11 O2A         4.0737   -2.9383   -4.1324 O.co2     1 ATP         0.3195
     12 O3A         1.7396   -1.9525   -4.4926 O.3       1 ATP         0.4672
     13 O5'         2.9216   -1.4836   -2.3516 O.3       1 ATP         0.1618
     14 C5'         2.2816   -0.2918   -1.9206 C.3       1 ATP         0.1504
     15 C4'         2.7248    0.0226   -0.4980 C.3       1 ATP         0.1111
     16 O4'         2.4697    1.4219   -0.2462 O.3       1 ATP        -0.1436
     17 C3'         1.9404   -0.7419    0.5596 C.3       1 ATP         0.1111
     18 O3'         2.7418   -0.8086    1.7389 O.3       1 ATP        -0.2728
     19 C2'         0.7477    0.1630    0.7858 C.3       1 ATP         0.1111
     20 O2'         0.1373   -0.0577    2.0407 O.3       1 ATP        -0.2728
     21 C1'         1.3733    1.5427    0.6747 C.3       1 ATP         0.2693
     22 N9          0.4520    2.5240    0.1767 N.pl3     1 ATP        -0.3222
     23 C8         -0.3054    2.4845   -1.1576 C.ar      1 ATP         0.1640
     24 N7         -1.0755    3.5806   -1.2691 N.2       1 ATP        -0.1640
     25 C5         -0.8043    4.2306   -0.0942 C.ar      1 ATP         0.0820
     26 C6         -1.4324    5.5335    0.2646 C.ar      1 ATP         0.1640
     27 N6         -2.2885    6.1054   -0.5675 N.pl3     1 ATP        -0.4916
     28 N1         -1.0537    6.0229    1.4478 N.pl3     1 ATP        -0.4390
     29 C2         -0.1096    5.3242    2.2908 C.ar      1 ATP         0.5691
     30 N3          0.4468    4.1904    1.9960 N.ar      1 ATP        -0.4283
     31 C4          0.0631    3.6855    0.7877 C.ar      1 ATP         0.2226
     32 H5'1        2.5589    0.5217   -2.5976 H         1 ATP        -0.0393
     33 H5'2        1.1982   -0.4388   -1.9617 H         1 ATP        -0.0393
     34 H4'         3.8040   -0.1399   -0.4044 H         1 ATP        -0.0393
     35 H3'         1.6768   -1.7637    0.2732 H         1 ATP        -0.0393
     36 HO3'        2.2231   -1.2979    2.3952 H         1 ATP         0.2010
     37 H2'         0.0002   -0.0084   -0.0014 H         1 ATP        -0.0393
     38 HO2'       -0.6132    0.5577    2.1063 H         1 ATP         0.2010
     39 H1'         1.7718    1.9211    1.6015 H         1 ATP        -0.0393
     40 H8         -0.2991    1.7413   -1.9611 H         1 ATP         0.0000
     41 HN61       -2.5167    5.6603   -1.4447 H         1 ATP         0.2048
     42 HN62       -2.7159    6.9882   -0.3270 H         1 ATP         0.2048
     43 H2          0.1059    5.8491    3.2340 H         1 ATP        -0.1292
     44 H44        -1.4532    6.9099    1.7401 H         1 ATP         0.2048
@<TRIPOS>BOND
     1    1    2 2
     2    1    3 1
     3    1    4 1
     4    1    8 1
     5    5    6 2
     6    5    7 1
     7    5    8 1
     8    5   12 1
     9    9   10 2
    10    9   11 1
    11    9   12 1
    12    9   13 1
    13   13   14 1
    14   14   15 1
    15   14   32 1
    16   14   33 1
    17   15   16 1
    18   15   17 1
    19   15   34 1
    20   16   21 1
    21   17   18 1
    22   17   19 1
    23   17   35 1
    24   18   36 1
    25   19   20 1
    26   19   21 1
    27   19   37 1
    28   20   38 1
    29   21   22 1
    30   21   39 1
    31   22   23 ar
    32   22   31 ar
    33   23   24 ar
    34   23   40 1
    35   24   25 ar
    36   25   26 ar
    37   25   31 ar
    38   26   27 1
    39   26   28 ar
    40   27   41 1
    41   27   42 1
    42   28   29 ar
    43   28   44 1
    44   29   30 ar
    45   29   43 1
    46   30   31 ar
@<TRIPOS>SUBSTRUCTURE
     1 ATP         1 GROUP 0 A     ****
@<TRIPOS>MOLECULE
[[[5-(6-amino-1,8-dihydropurine-6,8-diylium-7-id-9-yl)-3,4-dihydroxy-tetrahydrofuran-2-yl]methoxy-oxido-phosphoryl]oxy-oxido-phosphoryl] phosphate
   44    46     1     0     0
SMALL
USER_CHARGES

@<TRIPOS>ATOM
      1 PG          1.6047   -9.7768    2.7788 P.3       1 ATP        -1.1921
      2 O1G         2.4102  -10.0761    4.0388 O.co2     1 ATP         0.3195
      3 O2G         0.6456  -10.8884    2.3665 O.co2     1 ATP         0.3195
      4 O3G         2.4284   -9.2028    1.6307 O.co2     1 ATP         0.3195
      5 PB          0.9895   -7.0356    3.7593 P.3       1 ATP        -1.1062
      6 O1B         1.6314   -7.1592    5.1232 O.co2     1 ATP         0.3195
      7 O2B         1.6613   -6.2657    2.6443 O.co2     1 ATP         0.3195
      8 O3B         0.6169   -8.5306    3.2159 O.3       1 ATP         0.4672
      9 PA         -1.7206   -6.2776    2.8449 P.3       1 ATP        -1.1062
     10 O1A        -2.8668   -5.5424    3.5046 O.co2     1 ATP         0.3195
     11 O2A        -1.9499   -7.6006    2.1471 O.co2     1 ATP         0.3195
     12 O3A        -0.5285   -6.4645    3.9466 O.3       1 ATP         0.4672
     13 O5'        -0.9724   -5.2440    1.8220 O.3       1 ATP         0.1618
     14 C5'        -0.7840   -3.8935    2.2172 C.3       1 ATP         0.1504
     15 C4'        -0.0724   -3.1466    1.1027 C.3       1 ATP         0.1111
     16 O4'        -0.8674   -3.1929   -0.0945 O.3       1 ATP        -0.1436
     17 C3'         0.1338   -1.6715    1.4027 C.3       1 ATP         0.1111
     18 O3'         1.2893   -1.4445    2.1808 O.3       1 ATP        -0.2728
     19 C2'         0.2158   -1.0724    0.0128 C.3       1 ATP         0.1111
     20 O2'         1.5141   -1.2448   -0.5513 O.3       1 ATP        -0.2728
     21 C1'        -0.7897   -1.9176   -0.7583 C.3       1 ATP         0.2693
     22 N9         -2.1040   -1.3333   -0.7704 N.pl3     1 ATP        -0.3222
     23 C8         -3.2124   -1.5345    0.2719 C.ar      1 ATP         0.1640
     24 N7         -4.2964   -0.8234   -0.0828 N.2       1 ATP        -0.1640
     25 C5         -3.8754   -0.2386   -1.2478 C.ar      1 ATP         0.0820
     26 C6         -4.7432    0.6719   -2.0470 C.ar      1 ATP         0.1640
     27 N6         -5.9725    0.9415   -1.6366 N.pl3     1 ATP        -0.4916
     28 N1         -4.1703    1.1517   -3.1536 N.pl3     1 ATP        -0.4390
     29 C2         -2.8174    0.7994   -3.5215 C.ar      1 ATP         0.5691
     30 N3         -2.0475    0.0097   -2.8393 N.ar      1 ATP        -0.4283
     31 C4         -2.6278   -0.4836   -1.7071 C.ar      1 ATP         0.2226
     32 H5'1       -1.7618   -3.4448    2.4164 H         1 ATP        -0.0393
     33 H5'2       -0.1874   -3.8744    3.1341 H         1 ATP        -0.0393
     34 H4'         0.8871   -3.6466    0.8809 H         1 ATP        -0.0393
     35 H3'        -0.7370   -1.2334    1.9869 H         1 ATP        -0.0393
     36 HO3'        1.3407   -0.4871    2.3218 H         1 ATP         0.2010
     37 H2'        -0.0343   -0.0280    0.0196 H         1 ATP        -0.0393
     38 HO2'        2.1443   -0.7955    0.0378 H         1 ATP         0.2010
     39 H1'        -0.5175   -2.1046   -1.7826 H         1 ATP        -0.0393
     40 H8         -3.2310   -2.1319    1.1889 H         1 ATP         0.0000
     41 HN61       -6.3231    0.5316   -0.7829 H         1 ATP         0.2048
     42 HN62       -6.5628    1.5584   -2.1760 H         1 ATP         0.2048
     43 H2         -2.4822    1.2710   -4.4579 H         1 ATP        -0.1292
     44 H44        -4.7200    1.7780   -3.7346 H         1 ATP         0.2048
@<TRIPOS>BOND
     1    1    2 2
     2    1    3 1
     3    1    4 1
     4    1    8 1
     5    5    6 2
     6    5    7 1
     7    5    8 1
     8    5   12 1
     9    9   10 2
    10    9   11 1
    11    9   12 1
    12    9   13 1
    13   13   14 1
    14   14   15 1
    15   14   32 1
    16   14   33 1
    17   15   16 1
    18   15   17 1
    19   15   34 1
    20   16   21 1
    21   17   18 1
    22   17   19 1
    23   17   35 1
    24   18   36 1
    25   19   20 1
    26   19   21 1
    27   19   37 1
    28   20   38 1
    29   21   22 1
    30   21   39 1
    31   22   23 ar
    32   22   31 ar
    33   23   24 ar
    34   23   40 1
    35   24   25 ar
    36   25   26 ar
    37   25   31 ar
    38   26   27 1
    39   26   28 ar
    40   27   41 1
    41   27   42 1
    42   28   29 ar
    43   28   44 1
    44   29   30 ar
    45   29   43 1
    46   30   31 ar
@<TRIPOS>SUBSTRUCTURE
     1 ATP         1 GROUP 0 A     ****
@<TRIPOS>MOLECULE
[[[5-(6-amino-1,8-dihydropurine-6,8-diylium-7-id-9-yl)-3,4-dihydroxy-tetrahydrofuran-2-yl]methoxy-oxido-phosphoryl]oxy-oxido-phosphoryl] phosphate
   44    46     1     0     0
SMALL
USER_CHARGES

@<TRIPOS>ATOM
      1 PG          7.4870   -5.3378   -2.1031 P.3       1 ATP        -1.1921
      2 O1G         7.9293   -5.6701   -0.6819 O.co2     1 ATP         0.3195
      3 O2G         6.7907   -6.4839   -2.8293 O.co2     1 ATP         0.3195
      4 O3G         8.5434   -4.6190   -2.9357 O.co2     1 ATP         0.3195
      5 PB          6.3678   -2.7321   -1.2023 P.3       1 ATP        -1.1062
      6 O1B         6.6083   -2.9096    0.2803 O.co2     1 ATP         0.3195
      7 O2B         7.2516   -1.8323   -2.0369 O.co2     1 ATP         0.3195
      8 O3B         6.3044   -4.2056   -1.9051 O.3       1 ATP         0.4672
      9 PA          3.9665   -2.1124   -2.8163 P.3       1 ATP        -1.1062
     10 O1A         3.8018   -3.4752   -3.4529 O.co2     1 ATP         0.3195
     11 O2A         4.5554   -0.9591   -3.5994 O.co2     1 ATP         0.3195
     12 O3A         4.8121   -2.2920   -1.4298 O.3       1 ATP         0.4672
     13 O5'         2.5245   -1.6648   -2.1878 O.3       1 ATP         0.1618
     14 C5'         2.2816   -0.2918   -1.9206 C.3       1 ATP         0.1504
     15 C4'         2.7248    0.0226   -0.4980 C.3       1 ATP         0.1111
     16 O4'         2.4697    1.4219   -0.2462 O.3       1 ATP        -0.1436
     17 C3'         1.9404   -0.7419    0.5596 C.3       1 ATP         0.1111
     18 O3'         2.7418   -0.8086    1.7389 O.3       1 ATP        -0.2728
     19 C2'         0.7477    0.1630    0.7858 C.3       1 ATP         0.1111
     20 O2'         0.1373   -0.0577    2.0407 O.3       1 ATP        -0.2728
     21 C1'         1.3733    1.5427    0.6747 C.3       1 ATP         0.2693
     22 N9          0.4520    2.5240    0.1767 N.pl3     1 ATP        -0.3222
     23 C8          0.1798    2.8712   -1.2933 C.ar      1 ATP         0.1640
     24 N7         -0.7494    3.8400   -1.3610 N.2       1 ATP        -0.1640
     25 C5         -1.0173    4.0603   -0.0358 C.ar      1 ATP         0.0820
     26 C6         -2.0105    5.0717    0.4241 C.ar      1 ATP         0.1640
     27 N6         -2.6723    5.7982   -0.4628 N.pl3     1 ATP        -0.4916
     28 N1         -2.1445    5.1522    1.7502 N.pl3     1 ATP        -0.4390
     29 C2         -1.3755    4.3143    2.6427 C.ar      1 ATP         0.5691
     30 N3         -0.5075    3.4292    2.2616 N.ar      1 ATP        -0.4283
     31 C4         -0.3667    3.3425    0.9070 C.ar      1 ATP         0.2226
     32 H5'1        2.8432    0.3119   -2.6398 H         1 ATP        -0.0393
     33 H5'2        1.2128   -0.0927   -2.0428 H         1 ATP        -0.0393
     34 H4'         3.8040   -0.1399   -0.4044 H         1 ATP        -0.0393
     35 H3'         1.6768   -1.7637    0.2732 H         1 ATP        -0.0393
     36 HO3'        2.2231   -1.2979    2.3952 H         1 ATP         0.2010
     37 H2'         0.0002   -0.0084   -0.0014 H         1 ATP        -0.0393
     38 HO2'       -0.6132    0.5577    2.1063 H         1 ATP         0.2010
     39 H1'         1.7718    1.9211    1.6015 H         1 ATP        -0.0393
     40 H8          0.6089    2.4651   -2.2147 H         1 ATP         0.0000
     41 HN61       -2.5055    5.6680   -1.4503 H         1 ATP         0.2048
     42 HN62       -3.3462    6.4841   -0.1542 H         1 ATP         0.2048
     43 H2         -1.5932    4.4937    3.7066 H         1 ATP        -0.1292
     44 H44        -2.8098    5.8270    2.1160 H         1 ATP         0.2048
@<TRIPOS>BOND
     1    1    2 2
     2    1    3 1
     3    1    4 1
     4    1    8 1
     5    5    6 2
     6    5    7 1
     7    5    8 1
     8    5   12 1
     9    9   10 2
    10    9   11 1
    11    9   12 1
    12    9   13 1
    13   13   14 1
    14   14   15 1
    15   14   32 1
    16   14   33 1
    17   15   16 1
    18   15   17 1
    19   15   34 1
    20   16   21 1
    21   17   18 1
    22   17   19 1
    23   17   35 1
    24   18   36 1
    25   19   20 1
    26   19   21 1
    27   19   37 1
    28   20   38 1
    29   21   22 1
    30   21   39 1
    31   22   23 ar
    32   22   31 ar
    33   23   24 ar
    34   23   40 1
    35   24   25 ar
    36   25   26 ar
    37   25   31 ar
    38   26   27 1
    39   26   28 ar
    40   27   41 1
    41   27   42 1
    42   28   29 ar
    43   28   44 1
    44   29   30 ar
    45   29   43 1
    46   30   31 ar
@<TRIPOS>SUBSTRUCTURE
     1 ATP         1 GROUP 0 A     ****
@<TRIPOS>MOLECULE
[[[5-(6-amino-1,8-dihydropurine-6,8-diylium-7-id-9-yl)-3,4-dihydroxy-tetrahydrofuran-2-yl]methoxy-oxido-phosphoryl]oxy-oxido-phosphoryl] phosphate
   44    46     1     0     0
SMALL
USER_CHARGES

@<TRIPOS>ATOM
      1 PG         -2.4966   -1.0400   -3.1133 P.3       1 ATP        -1.1921
      2 O1G        -1.5272   -0.3322   -4.0541 O.co2     1 ATP         0.3195
      3 O2G        -3.8952   -1.2418   -3.6867 O.co2     1 ATP         0.3195
      4 O3G        -2.4767   -0.5138   -1.6820 O.co2     1 ATP         0.3195
      5 PB         -0.4352   -3.0758   -2.4350 P.3       1 ATP        -1.1062
      6 O1B        -0.1965   -2.4872   -1.0623 O.co2     1 ATP         0.3195
      7 O2B        -0.3162   -4.5633   -2.6808 O.co2     1 ATP         0.3195
      8 O3B        -1.8892   -2.5674   -2.9797 O.3       1 ATP         0.4672
      9 PA          2.1375   -2.2725   -3.6560 P.3       1 ATP        -1.1062
     10 O1A         2.5092   -1.2469   -4.7046 O.co2     1 ATP         0.3195
     11 O2A         2.6337   -3.6984   -3.7587 O.co2     1 ATP         0.3195
     12 O3A         0.5101   -2.2919   -3.5107 O.3       1 ATP         0.4672
     13 O5'         2.5245   -1.6648   -2.1878 O.3       1 ATP         0.1618
     14 C5'         2.2816   -0.2918   -1.9206 C.3       1 ATP         0.1504
     15 C4'         2.7248    0.0226   -0.4980 C.3       1 ATP         0.1111
     16 O4'         2.4697    1.4219   -0.2462 O.3       1 ATP        -0.1436
     17 C3'         1.9404   -0.7419    0.5596 C.3       1 ATP         0.1111
     18 O3'         2.7418   -0.8086    1.7389 O.3       1 ATP        -0.2728
     19 C2'         0.7477    0.1630    0.7858 C.3       1 ATP         0.1111
     20 O2'         0.1373   -0.0577    2.0407 O.3       1 ATP        -0.2728
     21 C1'         1.3733    1.5427    0.6747 C.3       1 ATP         0.2693
     22 N9          0.4520    2.5240    0.1767 N.pl3     1 ATP        -0.3222
     23 C8         -1.0660    2.5608    0.3999 C.ar      1 ATP         0.1640
     24 N7         -1.5852    3.6333   -0.2221 N.2       1 ATP        -0.1640
     25 C5         -0.4682    4.1996   -0.7771 C.ar      1 ATP         0.0820
     26 C6         -0.5216    5.4476   -1.5899 C.ar      1 ATP         0.1640
     27 N6         -1.6813    6.0510   -1.7982 N.pl3     1 ATP        -0.4916
     28 N1          0.6621    5.8575   -2.0523 N.pl3     1 ATP        -0.4390
     29 C2          1.8795    5.1301   -1.7717 C.ar      1 ATP         0.5691
     30 N3          1.9458    4.0434   -1.0670 N.ar      1 ATP        -0.4283
     31 C4          0.7388    3.6199   -0.5917 C.ar      1 ATP         0.2226
     32 H5'1        2.8432    0.3119   -2.6398 H         1 ATP        -0.0393
     33 H5'2        1.2128   -0.0927   -2.0428 H         1 ATP        -0.0393
     34 H4'         3.8040   -0.1399   -0.4044 H         1 ATP        -0.0393
     35 H3'         1.6768   -1.7637    0.2732 H         1 ATP        -0.0393
     36 HO3'        2.2231   -1.2979    2.3952 H         1 ATP         0.2010
     37 H2'         0.0002   -0.0084   -0.0014 H         1 ATP        -0.0393
     38 HO2'       -0.1554   -0.9852    2.0577 H         1 ATP         0.2010
     39 H1'         1.7718    1.9211    1.6015 H         1 ATP        -0.0393
     40 H8         -1.7235    1.8833    0.9537 H         1 ATP         0.0000
     41 HN61       -2.5296    5.6672   -1.4072 H         1 ATP         0.2048
     42 HN62       -1.7205    6.8969   -2.3483 H         1 ATP         0.2048
     43 H2          2.7750    5.5878   -2.2190 H         1 ATP        -0.1292
     44 H44         0.6808    6.7046   -2.6128 H         1 ATP         0.2048
@<TRIPOS>BOND
     1    1    2 2
     2    1    3 1
     3    1    4 1
     4    1    8 1
     5    5    6 2
     6    5    7 1
     7    5    8 1
     8    5   12 1
     9    9   10 2
    10    9   11 1
    11    9   12 1
    12    9   13 1
    13   13   14 1
    14   14   15 1
    15   14   32 1
    16   14   33 1
    17   15   16 1
    18   15   17 1
    19   15   34 1
    20   16   21 1
    21   17   18 1
    22   17   19 1
    23   17   35 1
    24   18   36 1
    25   19   20 1
    26   19   21 1
    27   19   37 1
    28   20   38 1
    29   21   22 1
    30   21   39 1
    31   22   23 ar
    32   22   31 ar
    33   23   24 ar
    34   23   40 1
    35   24   25 ar
    36   25   26 ar
    37   25   31 ar
    38   26   27 1
    39   26   28 ar
    40   27   41 1
    41   27   42 1
    42   28   29 ar
    43   28   44 1
    44   29   30 ar
    45   29   43 1
    46   30   31 ar
@<TRIPOS>SUBSTRUCTURE
     1 ATP         1 GROUP 0 A     ****
@<TRIPOS>MOLECULE
[[[5-(6-amino-1,8-dihydropurine-6,8-diylium-7-id-9-yl)-3,4-dihydroxy-tetrahydrofuran-2-yl]methoxy-oxido-phosphoryl]oxy-oxido-phosphoryl] phosphate
   44    46     1     0     0
SMALL
USER_CHARGES

@<TRIPOS>ATOM
      1 PG          7.4988   -0.3742   -5.6106 P.3       1 ATP        -1.1921
      2 O1G         7.1482    0.4593   -6.8387 O.co2     1 ATP         0.3195
      3 O2G         8.1994    0.4034   -4.5016 O.co2     1 ATP         0.3195
      4 O3G         8.1375   -1.7218   -5.9301 O.co2     1 ATP         0.3195
      5 PB          4.7930   -1.6123   -5.6130 P.3       1 ATP        -1.1062
      6 O1B         4.2005   -0.8027   -6.7448 O.co2     1 ATP         0.3195
      7 O2B         5.2264   -3.0465   -5.8193 O.co2     1 ATP         0.3195
      8 O3B         6.0363   -0.7756   -4.9625 O.3       1 ATP         0.4672
      9 PA          3.9665   -2.1124   -2.8163 P.3       1 ATP        -1.1062
     10 O1A         5.0486   -1.2960   -2.1438 O.co2     1 ATP         0.3195
     11 O2A         4.0512   -3.6227   -2.8595 O.co2     1 ATP         0.3195
     12 O3A         3.7733   -1.5533   -4.3394 O.3       1 ATP         0.4672
     13 O5'         2.5245   -1.6648   -2.1878 O.3       1 ATP         0.1618
     14 C5'         2.2816   -0.2918   -1.9206 C.3       1 ATP         0.1504
     15 C4'         2.7248    0.0226   -0.4980 C.3       1 ATP         0.1111
     16 O4'         2.4697    1.4219   -0.2462 O.3       1 ATP        -0.1436
     17 C3'         1.9404   -0.7419    0.5596 C.3       1 ATP         0.1111
     18 O3'         2.7418   -0.8086    1.7389 O.3       1 ATP        -0.2728
     19 C2'         0.7477    0.1630    0.7858 C.3       1 ATP         0.1111
     20 O2'         0.1373   -0.0577    2.0407 O.3       1 ATP        -0.2728
     21 C1'         1.3733    1.5427    0.6747 C.3       1 ATP         0.2693
     22 N9          0.4520    2.5240    0.1767 N.pl3     1 ATP        -0.3222
     23 C8         -0.3054    2.4845   -1.1576 C.ar      1 ATP         0.1640
     24 N7         -1.0755    3.5806   -1.2691 N.2       1 ATP        -0.1640
     25 C5         -0.8043    4.2306   -0.0942 C.ar      1 ATP         0.0820
     26 C6         -1.4324    5.5335    0.2646 C.ar      1 ATP         0.1640
     27 N6         -2.2885    6.1054   -0.5675 N.pl3     1 ATP        -0.4916
     28 N1         -1.0537    6.0229    1.4478 N.pl3     1 ATP        -0.4390
     29 C2         -0.1096    5.3242    2.2908 C.ar      1 ATP         0.5691
     30 N3          0.4468    4.1904    1.9960 N.ar      1 ATP        -0.4283
     31 C4          0.0631    3.6855    0.7877 C.ar      1 ATP         0.2226
     32 H5'1        2.8432    0.3119   -2.6398 H         1 ATP        -0.0393
     33 H5'2        1.2128   -0.0927   -2.0428 H         1 ATP        -0.0393
     34 H4'         3.8040   -0.1399   -0.4044 H         1 ATP        -0.0393
     35 H3'         1.6768   -1.7637    0.2732 H         1 ATP        -0.0393
     36 HO3'        2.2231   -1.2979    2.3952 H         1 ATP         0.2010
     37 H2'         0.0002   -0.0084   -0.0014 H         1 ATP        -0.0393
     38 HO2'       -0.1554   -0.9852    2.0577 H         1 ATP         0.2010
     39 H1'         1.7718    1.9211    1.6015 H         1 ATP        -0.0393
     40 H8         -0.2991    1.7413   -1.9611 H         1 ATP         0.0000
     41 HN61       -2.5167    5.6603   -1.4447 H         1 ATP         0.2048
     42 HN62       -2.7159    6.9882   -0.3270 H         1 ATP         0.2048
     43 H2          0.1059    5.8491    3.2340 H         1 ATP        -0.1292
     44 H44        -1.4532    6.9099    1.7401 H         1 ATP         0.2048
@<TRIPOS>BOND
     1    1    2 2
     2    1    3 1
     3    1    4 1
     4    1    8 1
     5    5    6 2
     6    5    7 1
     7    5    8 1
     8    5   12 1
     9    9   10 2
    10    9   11 1
    11    9   12 1
    12    9   13 1
    13   13   14 1
    14   14   15 1
    15   14   32 1
    16   14   33 1
    17   15   16 1
    18   15   17 1
    19   15   34 1
    20   16   21 1
    21   17   18 1
    22   17   19 1
    23   17   35 1
    24   18   36 1
    25   19   20 1
    26   19   21 1
    27   19   37 1
    28   20   38 1
    29   21   22 1
    30   21   39 1
    31   22   23 ar
    32   22   31 ar
    33   23   24 ar
    34   23   40 1
    35   24   25 ar
    36   25   26 ar
    37   25   31 ar
    38   26   27 1
    39   26   28 ar
    40   27   41 1
    41   27   42 1
    42   28   29 ar
    43   28   44 1
    44   29   30 ar
    45   29   43 1
    46   30   31 ar
@<TRIPOS>SUBSTRUCTURE
     1 ATP         1 GROUP 0 A     ****
@<TRIPOS>MOLECULE
[[[5-(6-amino-1,8-dihydropurine-6,8-diylium-7-id-9-yl)-3,4-dihydroxy-tetrahydrofuran-2-yl]methoxy-oxido-phosphoryl]oxy-oxido-phosphoryl] phosphate
   44    46     1     0     0
SMALL
USER_CHARGES

@<TRIPOS>ATOM
      1 PG          1.6565   -5.9531    8.0393 P.3       1 ATP        -1.1921
      2 O1G         2.1075   -7.4035    8.1770 O.co2     1 ATP         0.3195
      3 O2G         2.7965   -4.9411    7.9973 O.co2     1 ATP         0.3195
      4 O3G         0.5079   -5.5641    8.9642 O.co2     1 ATP         0.3195
      5 PB         -0.2694   -6.6998    5.8974 P.3       1 ATP        -1.1062
      6 O1B         0.1094   -8.1596    5.7839 O.co2     1 ATP         0.3195
      7 O2B        -1.5357   -6.2719    6.6051 O.co2     1 ATP         0.3195
      8 O3B         0.9913   -5.8770    6.5321 O.3       1 ATP         0.4672
      9 PA         -1.2298   -6.3297    3.1234 P.3       1 ATP        -1.1062
     10 O1A        -2.6211   -5.8404    3.4618 O.co2     1 ATP         0.3195
     11 O2A        -1.0028   -7.7497    2.6519 O.co2     1 ATP         0.3195
     12 O3A        -0.2577   -6.0398    4.4042 O.3       1 ATP         0.4672
     13 O5'        -0.5687   -5.2869    2.0510 O.3       1 ATP         0.1618
     14 C5'        -0.7840   -3.8935    2.2172 C.3       1 ATP         0.1504
     15 C4'        -0.0724   -3.1466    1.1027 C.3       1 ATP         0.1111
     16 O4'        -0.8674   -3.1929   -0.0945 O.3       1 ATP        -0.1436
     17 C3'         0.1338   -1.6715    1.4027 C.3       1 ATP         0.1111
     18 O3'         1.2893   -1.4445    2.1808 O.3       1 ATP        -0.2728
     19 C2'         0.2158   -1.0724    0.0128 C.3       1 ATP         0.1111
     20 O2'         1.5141   -1.2448   -0.5513 O.3       1 ATP        -0.2728
     21 C1'        -0.7897   -1.9176   -0.7583 C.3       1 ATP         0.2693
     22 N9         -2.1040   -1.3333   -0.7704 N.pl3     1 ATP        -0.3222
     23 C8         -3.2124   -1.5345    0.2719 C.ar      1 ATP         0.1640
     24 N7         -4.2964   -0.8234   -0.0828 N.2       1 ATP        -0.1640
     25 C5         -3.8754   -0.2386   -1.2478 C.ar      1 ATP         0.0820
     26 C6         -4.7432    0.6719   -2.0470 C.ar      1 ATP         0.1640
     27 N6         -5.9725    0.9415   -1.6366 N.pl3     1 ATP        -0.4916
     28 N1         -4.1703    1.1517   -3.1536 N.pl3     1 ATP        -0.4390
     29 C2         -2.8174    0.7994   -3.5215 C.ar      1 ATP         0.5691
     30 N3         -2.0475    0.0097   -2.8393 N.ar      1 ATP        -0.4283
     31 C4         -2.6278   -0.4836   -1.7071 C.ar      1 ATP         0.2226
     32 H5'1       -1.8598   -3.6968    2.1850 H         1 ATP        -0.0393
     33 H5'2       -0.3933   -3.5903    3.1931 H         1 ATP        -0.0393
     34 H4'         0.8871   -3.6466    0.8809 H         1 ATP        -0.0393
     35 H3'        -0.7370   -1.2334    1.9869 H         1 ATP        -0.0393
     36 HO3'        1.3407   -0.4871    2.3218 H         1 ATP         0.2010
     37 H2'        -0.0343   -0.0280    0.0196 H         1 ATP        -0.0393
     38 HO2'        2.1443   -0.7955    0.0378 H         1 ATP         0.2010
     39 H1'        -0.5175   -2.1046   -1.7826 H         1 ATP        -0.0393
     40 H8         -3.2310   -2.1319    1.1889 H         1 ATP         0.0000
     41 HN61       -6.3231    0.5316   -0.7829 H         1 ATP         0.2048
     42 HN62       -6.5628    1.5584   -2.1760 H         1 ATP         0.2048
     43 H2         -2.4822    1.2710   -4.4579 H         1 ATP        -0.1292
     44 H44        -4.7200    1.7780   -3.7346 H         1 ATP         0.2048
@<TRIPOS>BOND
     1    1    2 2
     2    1    3 1
     3    1    4 1
     4    1    8 1
     5    5    6 2
     6    5    7 1
     7    5    8 1
     8    5   12 1
     9    9   10 2
    10    9   11 1
    11    9   12 1
    12    9   13 1
    13   13   14 1
    14   14   15 1
    15   14   32 1
    16   14   33 1
    17   15   16 1
    18   15   17 1
    19   15   34 1
    20   16   21 1
    21   17   18 1
    22   17   19 1
    23   17   35 1
    24   18   36 1
    25   19   20 1
    26   19   21 1
    27   19   37 1
    28   20   38 1
    29   21   22 1
    30   21   39 1
    31   22   23 ar
    32   22   31 ar
    33   23   24 ar
    34   23   40 1
    35   24   25 ar
    36   25   26 ar
    37   25   31 ar
    38   26   27 1
    39   26   28 ar
    40   27   41 1
    41   27   42 1
    42   28   29 ar
    43   28   44 1
    44   29   30 ar
    45   29   43 1
    46   30   31 ar
@<TRIPOS>SUBSTRUCTURE
     1 ATP         1 GROUP 0 A     ****
@<TRIPOS>MOLECULE
[[[5-(6-amino-1,8-dihydropurine-6,8-diylium-7-id-9-yl)-3,4-dihydroxy-tetrahydrofuran-2-yl]methoxy-oxido-phosphoryl]oxy-oxido-phosphoryl] phosphate
   44    46     1     0     0
SMALL
USER_CHARGES

@<TRIPOS>ATOM
      1 PG         -5.8293   -5.6203    5.6158 P.3       1 ATP        -1.1921
      2 O1G        -5.5389   -5.0047    6.9805 O.co2     1 ATP         0.3195
      3 O2G        -6.7337   -4.7759    4.7244 O.co2     1 ATP         0.3195
      4 O3G        -6.1999   -7.0990    5.6620 O.co2     1 ATP         0.3195
      5 PB         -2.9573   -6.3112    5.2574 P.3       1 ATP        -1.1062
      6 O1B        -2.4322   -5.6542    6.5144 O.co2     1 ATP         0.3195
      7 O2B        -3.1195   -7.8122    5.1672 O.co2     1 ATP         0.3195
      8 O3B        -4.3712   -5.6038    4.8454 O.3       1 ATP         0.4672
      9 PA         -2.2649   -6.0688    2.3909 P.3       1 ATP        -1.1062
     10 O1A        -3.5185   -5.3467    1.9474 O.co2     1 ATP         0.3195
     11 O2A        -2.0835   -7.5452    2.1129 O.co2     1 ATP         0.3195
     12 O3A        -2.0598   -5.8063    3.9905 O.3       1 ATP         0.4672
     13 O5'        -0.9724   -5.2440    1.8220 O.3       1 ATP         0.1618
     14 C5'        -0.7840   -3.8935    2.2172 C.3       1 ATP         0.1504
     15 C4'        -0.0724   -3.1466    1.1027 C.3       1 ATP         0.1111
     16 O4'        -0.8674   -3.1929   -0.0945 O.3       1 ATP        -0.1436
     17 C3'         0.1338   -1.6715    1.4027 C.3       1 ATP         0.1111
     18 O3'         1.2893   -1.4445    2.1808 O.3       1 ATP        -0.2728
     19 C2'         0.2158   -1.0724    0.0128 C.3       1 ATP         0.1111
     20 O2'         1.5141   -1.2448   -0.5513 O.3       1 ATP        -0.2728
     21 C1'        -0.7897   -1.9176   -0.7583 C.3       1 ATP         0.2693
     22 N9         -2.1040   -1.3333   -0.7704 N.pl3     1 ATP        -0.3222
     23 C8         -3.2124   -1.5345    0.2719 C.ar      1 ATP         0.1640
     24 N7         -4.2964   -0.8234   -0.0828 N.2       1 ATP        -0.1640
     25 C5         -3.8754   -0.2386   -1.2478 C.ar      1 ATP         0.0820
     26 C6         -4.7432    0.6719   -2.0470 C.ar      1 ATP         0.1640
     27 N6         -5.9725    0.9415   -1.6366 N.pl3     1 ATP        -0.4916
     28 N1         -4.1703    1.1517   -3.1536 N.pl3     1 ATP        -0.4390
     29 C2         -2.8174    0.7994   -3.5215 C.ar      1 ATP         0.5691
     30 N3         -2.0475    0.0097   -2.8393 N.ar      1 ATP        -0.4283
     31 C4         -2.6278   -0.4836   -1.7071 C.ar      1 ATP         0.2226
     32 H5'1       -1.7618   -3.4448    2.4164 H         1 ATP        -0.0393
     33 H5'2       -0.1874   -3.8744    3.1341 H         1 ATP        -0.0393
     34 H4'         0.8871   -3.6466    0.8809 H         1 ATP        -0.0393
     35 H3'        -0.7370   -1.2334    1.9869 H         1 ATP        -0.0393
     36 HO3'        1.3407   -0.4871    2.3218 H         1 ATP         0.2010
     37 H2'        -0.0343   -0.0280    0.0196 H         1 ATP        -0.0393
     38 HO2'        2.1443   -0.7955    0.0378 H         1 ATP         0.2010
     39 H1'        -0.5175   -2.1046   -1.7826 H         1 ATP        -0.0393
     40 H8         -3.2310   -2.1319    1.1889 H         1 ATP         0.0000
     41 HN61       -6.3231    0.5316   -0.7829 H         1 ATP         0.2048
     42 HN62       -6.5628    1.5584   -2.1760 H         1 ATP         0.2048
     43 H2         -2.4822    1.2710   -4.4579 H         1 ATP        -0.1292
     44 H44        -4.7200    1.7780   -3.7346 H         1 ATP         0.2048
@<TRIPOS>BOND
     1    1    2 2
     2    1    3 1
     3    1    4 1
     4    1    8 1
     5    5    6 2
     6    5    7 1
     7    5    8 1
     8    5   12 1
     9    9   10 2
    10    9   11 1
    11    9   12 1
    12    9   13 1
    13   13   14 1
    14   14   15 1
    15   14   32 1
    16   14   33 1
    17   15   16 1
    18   15   17 1
    19   15   34 1
    20   16   21 1
    21   17   18 1
    22   17   19 1
    23   17   35 1
    24   18   36 1
    25   19   20 1
    26   19   21 1
    27   19   37 1
    28   20   38 1
    29   21   22 1
    30   21   39 1
    31   22   23 ar
    32   22   31 ar
    33   23   24 ar
    34   23   40 1
    35   24   25 ar
    36   25   26 ar
    37   25   31 ar
    38   26   27 1
    39   26   28 ar
    40   27   41 1
    41   27   42 1
    42   28   29 ar
    43   28   44 1
    44   29   30 ar
    45   29   43 1
    46   30   31 ar
@<TRIPOS>SUBSTRUCTURE
     1 ATP         1 GROUP 0 A     ****
@<TRIPOS>MOLECULE
[[[5-(6-amino-1,8-dihydropurine-6,8-diylium-7-id-9-yl)-3,4-dihydroxy-tetrahydrofuran-2-yl]methoxy-oxido-phosphoryl]oxy-oxido-phosphoryl] phosphate
   44    46     1     0     0
SMALL
USER_CHARGES

@<TRIPOS>ATOM
      1 PG         -0.7962   -5.5367   -5.6671 P.3       1 ATP        -1.1921
      2 O1G        -0.7020   -5.0077   -7.0944 O.co2     1 ATP         0.3195
      3 O2G         0.0976   -6.7389   -5.3815 O.co2     1 ATP         0.3195
      4 O3G        -2.2221   -5.6787   -5.1448 O.co2     1 ATP         0.3195
      5 PB         -0.6299   -2.7736   -4.5755 P.3       1 ATP        -1.1062
      6 O1B        -0.4045   -2.0514   -5.8851 O.co2     1 ATP         0.3195
      7 O2B        -1.9764   -2.7459   -3.8875 O.co2     1 ATP         0.3195
      8 O3B        -0.1574   -4.3284   -4.7442 O.3       1 ATP         0.4672
      9 PA          2.1375   -2.2725   -3.6560 P.3       1 ATP        -1.1062
     10 O1A         2.5092   -1.2469   -4.7046 O.co2     1 ATP         0.3195
     11 O2A         2.6337   -3.6984   -3.7587 O.co2     1 ATP         0.3195
     12 O3A         0.5101   -2.2919   -3.5107 O.3       1 ATP         0.4672
     13 O5'         2.5245   -1.6648   -2.1878 O.3       1 ATP         0.1618
     14 C5'         2.2816   -0.2918   -1.9206 C.3       1 ATP         0.1504
     15 C4'         2.7248    0.0226   -0.4980 C.3       1 ATP         0.1111
     16 O4'         2.4697    1.4219   -0.2462 O.3       1 ATP        -0.1436
     17 C3'         1.9404   -0.7419    0.5596 C.3       1 ATP         0.1111
     18 O3'         2.7418   -0.8086    1.7389 O.3       1 ATP        -0.2728
     19 C2'         0.7477    0.1630    0.7858 C.3       1 ATP         0.1111
     20 O2'         0.1373   -0.0577    2.0407 O.3       1 ATP        -0.2728
     21 C1'         1.3733    1.5427    0.6747 C.3       1 ATP         0.2693
     22 N9          0.4520    2.5240    0.1767 N.pl3     1 ATP        -0.3222
     23 C8         -1.0660    2.5608    0.3999 C.ar      1 ATP         0.1640
     24 N7         -1.5852    3.6333   -0.2221 N.2       1 ATP        -0.1640
     25 C5         -0.4682    4.1996   -0.7771 C.ar      1 ATP         0.0820
     26 C6         -0.5216    5.4476   -1.5899 C.ar      1 ATP         0.1640
     27 N6         -1.6813    6.0510   -1.7982 N.pl3     1 ATP        -0.4916
     28 N1          0.6621    5.8575   -2.0523 N.pl3     1 ATP        -0.4390
     29 C2          1.8795    5.1301   -1.7717 C.ar      1 ATP         0.5691
     30 N3          1.9458    4.0434   -1.0670 N.ar      1 ATP        -0.4283
     31 C4          0.7388    3.6199   -0.5917 C.ar      1 ATP         0.2226
     32 H5'1        2.8432    0.3119   -2.6398 H         1 ATP        -0.0393
     33 H5'2        1.2128   -0.0927   -2.0428 H         1 ATP        -0.0393
     34 H4'         3.8040   -0.1399   -0.4044 H         1 ATP        -0.0393
     35 H3'         1.6768   -1.7637    0.2732 H         1 ATP        -0.0393
     36 HO3'        2.2231   -1.2979    2.3952 H         1 ATP         0.2010
     37 H2'         0.0002   -0.0084   -0.0014 H         1 ATP        -0.0393
     38 HO2'       -0.1554   -0.9852    2.0577 H         1 ATP         0.2010
     39 H1'         1.7718    1.9211    1.6015 H         1 ATP        -0.0393
     40 H8         -1.7235    1.8833    0.9537 H         1 ATP         0.0000
     41 HN61       -2.5296    5.6672   -1.4072 H         1 ATP         0.2048
     42 HN62       -1.7205    6.8969   -2.3483 H         1 ATP         0.2048
     43 H2          2.7750    5.5878   -2.2190 H         1 ATP        -0.1292
     44 H44         0.6808    6.7046   -2.6128 H         1 ATP         0.2048
@<TRIPOS>BOND
     1    1    2 2
     2    1    3 1
     3    1    4 1
     4    1    8 1
     5    5    6 2
     6    5    7 1
     7    5    8 1
     8    5   12 1
     9    9   10 2
    10    9   11 1
    11    9   12 1
    12    9   13 1
    13   13   14 1
    14   14   15 1
    15   14   32 1
    16   14   33 1
    17   15   16 1
    18   15   17 1
    19   15   34 1
    20   16   21 1
    21   17   18 1
    22   17   19 1
    23   17   35 1
    24   18   36 1
    25   19   20 1
    26   19   21 1
    27   19   37 1
    28   20   38 1
    29   21   22 1
    30   21   39 1
    31   22   23 ar
    32   22   31 ar
    33   23   24 ar
    34   23   40 1
    35   24   25 ar
    36   25   26 ar
    37   25   31 ar
    38   26   27 1
    39   26   28 ar
    40   27   41 1
    41   27   42 1
    42   28   29 ar
    43   28   44 1
    44   29   30 ar
    45   29   43 1
    46   30   31 ar
@<TRIPOS>SUBSTRUCTURE
     1 ATP         1 GROUP 0 A     ****
@<TRIPOS>MOLECULE
[[[5-(6-amino-1,8-dihydropurine-6,8-diylium-7-id-9-yl)-3,4-dihydroxy-tetrahydrofuran-2-yl]methoxy-oxido-phosphoryl]oxy-oxido-phosphoryl] phosphate
   44    46     1     0     0
SMALL
USER_CHARGES

@<TRIPOS>ATOM
      1 PG          1.5635   -3.0511   -6.4349 P.3       1 ATP        -1.1921
      2 O1G         2.3708   -2.8630   -7.7150 O.co2     1 ATP         0.3195
      3 O2G         0.3844   -4.0087   -6.5698 O.co2     1 ATP         0.3195
      4 O3G         1.2351   -1.7527   -5.7052 O.co2     1 ATP         0.3195
      5 PB          4.0588   -3.3600   -4.8436 P.3       1 ATP        -1.1062
      6 O1B         4.5173   -4.3579   -3.8036 O.co2     1 ATP         0.3195
      7 O2B         4.9412   -2.9871   -6.0139 O.co2     1 ATP         0.3195
      8 O3B         2.5999   -3.8260   -5.4125 O.3       1 ATP         0.4672
      9 PA          4.4792   -0.9077   -3.2423 P.3       1 ATP        -1.1062
     10 O1A         5.4086   -0.2021   -4.2056 O.co2     1 ATP         0.3195
     11 O2A         5.0196   -1.5815   -1.9997 O.co2     1 ATP         0.3195
     12 O3A         3.5930   -1.9917   -4.0845 O.3       1 ATP         0.4672
     13 O5'         3.2903    0.1346   -2.8241 O.3       1 ATP         0.1618
     14 C5'         2.2816   -0.2918   -1.9206 C.3       1 ATP         0.1504
     15 C4'         2.7248    0.0226   -0.4980 C.3       1 ATP         0.1111
     16 O4'         2.4697    1.4219   -0.2462 O.3       1 ATP        -0.1436
     17 C3'         1.9404   -0.7419    0.5596 C.3       1 ATP         0.1111
     18 O3'         2.7418   -0.8086    1.7389 O.3       1 ATP        -0.2728
     19 C2'         0.7477    0.1630    0.7858 C.3       1 ATP         0.1111
     20 O2'         0.1373   -0.0577    2.0407 O.3       1 ATP        -0.2728
     21 C1'         1.3733    1.5427    0.6747 C.3       1 ATP         0.2693
     22 N9          0.4520    2.5240    0.1767 N.pl3     1 ATP        -0.3222
     23 C8          0.5793    3.3338   -1.1209 C.ar      1 ATP         0.1640
     24 N7         -0.4807    4.1508   -1.2458 N.2       1 ATP        -0.1640
     25 C5         -1.1921    3.8572   -0.1126 C.ar      1 ATP         0.0820
     26 C6         -2.4855    4.5203    0.2163 C.ar      1 ATP         0.1640
     27 N6         -2.9873    5.4319   -0.6020 N.pl3     1 ATP        -0.4916
     28 N1         -3.0414    4.1119    1.3596 N.pl3     1 ATP        -0.4390
     29 C2         -2.4169    3.1071    2.1904 C.ar      1 ATP         0.5691
     30 N3         -1.2928    2.5191    1.9210 N.ar      1 ATP        -0.4283
     31 C4         -0.7202    2.9326    0.7534 C.ar      1 ATP         0.2226
     32 H5'1        1.3514    0.2330   -2.1577 H         1 ATP        -0.0393
     33 H5'2        2.1280   -1.3678   -2.0460 H         1 ATP        -0.0393
     34 H4'         3.8040   -0.1399   -0.4044 H         1 ATP        -0.0393
     35 H3'         1.6768   -1.7637    0.2732 H         1 ATP        -0.0393
     36 HO3'        3.5553   -1.2733    1.4913 H         1 ATP         0.2010
     37 H2'         0.0002   -0.0084   -0.0014 H         1 ATP        -0.0393
     38 HO2'       -0.1554   -0.9852    2.0577 H         1 ATP         0.2010
     39 H1'         1.7718    1.9211    1.6015 H         1 ATP        -0.0393
     40 H8          1.3565    3.3309   -1.8916 H         1 ATP         0.0000
     41 HN61       -2.4952    5.6785   -1.4487 H         1 ATP         0.2048
     42 HN62       -3.8637    5.8828   -0.3819 H         1 ATP         0.2048
     43 H2         -2.9911    2.8734    3.1000 H         1 ATP        -0.1292
     44 H44        -3.9253    4.5332    1.6302 H         1 ATP         0.2048
@<TRIPOS>BOND
     1    1    2 2
     2    1    3 1
     3    1    4 1
     4    1    8 1
     5    5    6 2
     6    5    7 1
     7    5    8 1
     8    5   12 1
     9    9   10 2
    10    9   11 1
    11    9   12 1
    12    9   13 1
    13   13   14 1
    14   14   15 1
    15   14   32 1
    16   14   33 1
    17   15   16 1
    18   15   17 1
    19   15   34 1
    20   16   21 1
    21   17   18 1
    22   17   19 1
    23   17   35 1
    24   18   36 1
    25   19   20 1
    26   19   21 1
    27   19   37 1
    28   20   38 1
    29   21   22 1
    30   21   39 1
    31   22   23 ar
    32   22   31 ar
    33   23   24 ar
    34   23   40 1
    35   24   25 ar
    36   25   26 ar
    37   25   31 ar
    38   26   27 1
    39   26   28 ar
    40   27   41 1
    41   27   42 1
    42   28   29 ar
    43   28   44 1
    44   29   30 ar
    45   29   43 1
    46   30   31 ar
@<TRIPOS>SUBSTRUCTURE
     1 ATP         1 GROUP 0 A     ****
@<TRIPOS>MOLECULE
[[[5-(6-amino-1,8-dihydropurine-6,8-diylium-7-id-9-yl)-3,4-dihydroxy-tetrahydrofuran-2-yl]methoxy-oxido-phosphoryl]oxy-oxido-phosphoryl] phosphate
   44    46     1     0     0
SMALL
USER_CHARGES

@<TRIPOS>ATOM
      1 PG         -1.3892   -0.3848   -5.2546 P.3       1 ATP        -1.1921
      2 O1G        -1.4935    0.5161   -6.4807 O.co2     1 ATP         0.3195
      3 O2G        -2.6396   -1.2111   -4.9729 O.co2     1 ATP         0.3195
      4 O3G        -0.7995    0.2975   -4.0246 O.co2     1 ATP         0.3195
      5 PB          1.3155   -1.3003   -6.0917 P.3       1 ATP        -1.1062
      6 O1B         1.9678   -2.6598   -6.2091 O.co2     1 ATP         0.3195
      7 O2B         1.3891   -0.2962   -7.2202 O.co2     1 ATP         0.3195
      8 O3B        -0.2496   -1.5026   -5.6689 O.3       1 ATP         0.4672
      9 PA          3.3347   -0.0507   -4.3265 P.3       1 ATP        -1.1062
     10 O1A         3.6687    1.1277   -5.2151 O.co2     1 ATP         0.3195
     11 O2A         4.2681   -1.2382   -4.2337 O.co2     1 ATP         0.3195
     12 O3A         1.8422   -0.5852   -4.7217 O.3       1 ATP         0.4672
     13 O5'         3.0213    0.5153   -2.8245 O.3       1 ATP         0.1618
     14 C5'         2.2816   -0.2918   -1.9206 C.3       1 ATP         0.1504
     15 C4'         2.7248    0.0226   -0.4980 C.3       1 ATP         0.1111
     16 O4'         2.4697    1.4219   -0.2462 O.3       1 ATP        -0.1436
     17 C3'         1.9404   -0.7419    0.5596 C.3       1 ATP         0.1111
     18 O3'         2.7418   -0.8086    1.7389 O.3       1 ATP        -0.2728
     19 C2'         0.7477    0.1630    0.7858 C.3       1 ATP         0.1111
     20 O2'         0.1373   -0.0577    2.0407 O.3       1 ATP        -0.2728
     21 C1'         1.3733    1.5427    0.6747 C.3       1 ATP         0.2693
     22 N9          0.4520    2.5240    0.1767 N.pl3     1 ATP        -0.3222
     23 C8         -0.7463    2.2774   -0.7501 C.ar      1 ATP         0.1640
     24 N7         -1.3714    3.4419   -0.9948 N.2       1 ATP        -0.1640
     25 C5         -0.6104    4.3223   -0.2723 C.ar      1 ATP         0.0820
     26 C6         -0.9062    5.7820   -0.2194 C.ar      1 ATP         0.1640
     27 N6         -1.9385    6.2713   -0.8881 N.pl3     1 ATP        -0.4916
     28 N1         -0.0613    6.4906    0.5336 N.pl3     1 ATP        -0.4390
     29 C2          1.0416    5.8662    1.2291 C.ar      1 ATP         0.5691
     30 N3          1.3146    4.5989    1.1954 N.ar      1 ATP        -0.4283
     31 C4          0.4541    3.8697    0.4273 C.ar      1 ATP         0.2226
     32 H5'1        1.2163   -0.0770   -2.0471 H         1 ATP        -0.0393
     33 H5'2        2.4655   -1.3443   -2.1563 H         1 ATP        -0.0393
     34 H4'         3.8040   -0.1399   -0.4044 H         1 ATP        -0.0393
     35 H3'         1.6768   -1.7637    0.2732 H         1 ATP        -0.0393
     36 HO3'        2.2231   -1.2979    2.3952 H         1 ATP         0.2010
     37 H2'         0.0002   -0.0084   -0.0014 H         1 ATP        -0.0393
     38 HO2'       -0.6132    0.5577    2.1063 H         1 ATP         0.2010
     39 H1'         1.7718    1.9211    1.6015 H         1 ATP        -0.0393
     40 H8         -1.1244    1.3534   -1.1987 H         1 ATP         0.0000
     41 HN61       -2.5259    5.6573   -1.4336 H         1 ATP         0.2048
     42 HN62       -2.1416    7.2600   -0.8539 H         1 ATP         0.2048
     43 H2          1.6509    6.5764    1.8088 H         1 ATP        -0.1292
     44 H44        -0.2190    7.4917    0.6033 H         1 ATP         0.2048
@<TRIPOS>BOND
     1    1    2 2
     2    1    3 1
     3    1    4 1
     4    1    8 1
     5    5    6 2
     6    5    7 1
     7    5    8 1
     8    5   12 1
     9    9   10 2
    10    9   11 1
    11    9   12 1
    12    9   13 1
    13   13   14 1
    14   14   15 1
    15   14   32 1
    16   14   33 1
    17   15   16 1
    18   15   17 1
    19   15   34 1
    20   16   21 1
    21   17   18 1
    22   17   19 1
    23   17   35 1
    24   18   36 1
    25   19   20 1
    26   19   21 1
    27   19   37 1
    28   20   38 1
    29   21   22 1
    30   21   39 1
    31   22   23 ar
    32   22   31 ar
    33   23   24 ar
    34   23   40 1
    35   24   25 ar
    36   25   26 ar
    37   25   31 ar
    38   26   27 1
    39   26   28 ar
    40   27   41 1
    41   27   42 1
    42   28   29 ar
    43   28   44 1
    44   29   30 ar
    45   29   43 1
    46   30   31 ar
@<TRIPOS>SUBSTRUCTURE
     1 ATP         1 GROUP 0 A     ****
@<TRIPOS>MOLECULE
[[[5-(6-amino-1,8-dihydropurine-6,8-diylium-7-id-9-yl)-3,4-dihydroxy-tetrahydrofuran-2-yl]methoxy-oxido-phosphoryl]oxy-oxido-phosphoryl] phosphate
   44    46     1     0     0
SMALL
USER_CHARGES

@<TRIPOS>ATOM
      1 PG         -1.8175   -1.3519   -6.6131 P.3       1 ATP        -1.1921
      2 O1G        -1.3850   -1.0612   -8.0463 O.co2     1 ATP         0.3195
      3 O2G        -1.8577   -2.8341   -6.2565 O.co2     1 ATP         0.3195
      4 O3G        -3.0415   -0.5649   -6.1565 O.co2     1 ATP         0.3195
      5 PB         -0.0144    0.7780   -5.5806 P.3       1 ATP        -1.1062
      6 O1B         0.6376    1.1463   -6.8947 O.co2     1 ATP         0.3195
      7 O2B        -1.0754    1.6583   -4.9589 O.co2     1 ATP         0.3195
      8 O3B        -0.5929   -0.7460   -5.6895 O.3       1 ATP         0.4672
      9 PA          2.2228    1.5519   -3.8055 P.3       1 ATP        -1.1062
     10 O1A         1.4562    2.5268   -2.9386 O.co2     1 ATP         0.3195
     11 O2A         3.1599    2.0483   -4.8850 O.co2     1 ATP         0.3195
     12 O3A         1.1559    0.5105   -4.4741 O.3       1 ATP         0.4672
     13 O5'         3.0213    0.5153   -2.8245 O.3       1 ATP         0.1618
     14 C5'         2.2816   -0.2918   -1.9206 C.3       1 ATP         0.1504
     15 C4'         2.7248    0.0226   -0.4980 C.3       1 ATP         0.1111
     16 O4'         2.4697    1.4219   -0.2462 O.3       1 ATP        -0.1436
     17 C3'         1.9404   -0.7419    0.5596 C.3       1 ATP         0.1111
     18 O3'         2.7418   -0.8086    1.7389 O.3       1 ATP        -0.2728
     19 C2'         0.7477    0.1630    0.7858 C.3       1 ATP         0.1111
     20 O2'         0.1373   -0.0577    2.0407 O.3       1 ATP        -0.2728
     21 C1'         1.3733    1.5427    0.6747 C.3       1 ATP         0.2693
     22 N9          0.4520    2.5240    0.1767 N.pl3     1 ATP        -0.3222
     23 C8         -0.7463    2.2774   -0.7501 C.ar      1 ATP         0.1640
     24 N7         -1.3714    3.4419   -0.9948 N.2       1 ATP        -0.1640
     25 C5         -0.6104    4.3223   -0.2723 C.ar      1 ATP         0.0820
     26 C6         -0.9062    5.7820   -0.2194 C.ar      1 ATP         0.1640
     27 N6         -1.9385    6.2713   -0.8881 N.pl3     1 ATP        -0.4916
     28 N1         -0.0613    6.4906    0.5336 N.pl3     1 ATP        -0.4390
     29 C2          1.0416    5.8662    1.2291 C.ar      1 ATP         0.5691
     30 N3          1.3146    4.5989    1.1954 N.ar      1 ATP        -0.4283
     31 C4          0.4541    3.8697    0.4273 C.ar      1 ATP         0.2226
     32 H5'1        1.2163   -0.0770   -2.0471 H         1 ATP        -0.0393
     33 H5'2        2.4655   -1.3443   -2.1563 H         1 ATP        -0.0393
     34 H4'         3.8040   -0.1399   -0.4044 H         1 ATP        -0.0393
     35 H3'         1.6768   -1.7637    0.2732 H         1 ATP        -0.0393
     36 HO3'        3.5553   -1.2733    1.4913 H         1 ATP         0.2010
     37 H2'         0.0002   -0.0084   -0.0014 H         1 ATP        -0.0393
     38 HO2'       -0.6132    0.5577    2.1063 H         1 ATP         0.2010
     39 H1'         1.7718    1.9211    1.6015 H         1 ATP        -0.0393
     40 H8         -1.1244    1.3534   -1.1987 H         1 ATP         0.0000
     41 HN61       -2.5259    5.6573   -1.4336 H         1 ATP         0.2048
     42 HN62       -2.1416    7.2600   -0.8539 H         1 ATP         0.2048
     43 H2          1.6509    6.5764    1.8088 H         1 ATP        -0.1292
     44 H44        -0.2190    7.4917    0.6033 H         1 ATP         0.2048
@<TRIPOS>BOND
     1    1    2 2
     2    1    3 1
     3    1    4 1
     4    1    8 1
     5    5    6 2
     6    5    7 1
     7    5    8 1
     8    5   12 1
     9    9   10 2
    10    9   11 1
    11    9   12 1
    12    9   13 1
    13   13   14 1
    14   14   15 1
    15   14   32 1
    16   14   33 1
    17   15   16 1
    18   15   17 1
    19   15   34 1
    20   16   21 1
    21   17   18 1
    22   17   19 1
    23   17   35 1
    24   18   36 1
    25   19   20 1
    26   19   21 1
    27   19   37 1
    28   20   38 1
    29   21   22 1
    30   21   39 1
    31   22   23 ar
    32   22   31 ar
    33   23   24 ar
    34   23   40 1
    35   24   25 ar
    36   25   26 ar
    37   25   31 ar
    38   26   27 1
    39   26   28 ar
    40   27   41 1
    41   27   42 1
    42   28   29 ar
    43   28   44 1
    44   29   30 ar
    45   29   43 1
    46   30   31 ar
@<TRIPOS>SUBSTRUCTURE
     1 ATP         1 GROUP 0 A     ****
@<TRIPOS>MOLECULE
[[[5-(6-amino-1,8-dihydropurine-6,8-diylium-7-id-9-yl)-3,4-dihydroxy-tetrahydrofuran-2-yl]methoxy-oxido-phosphoryl]oxy-oxido-phosphoryl] phosphate
   44    46     1     0     0
SMALL
USER_CHARGES

@<TRIPOS>ATOM
      1 PG          0.2236    4.4145   -6.5028 P.3       1 ATP        -1.1921
      2 O1G        -0.9898    3.6973   -7.0852 O.co2     1 ATP         0.3195
      3 O2G        -0.1117    5.4602   -5.4446 O.co2     1 ATP         0.3195
      4 O3G         1.2354    4.8802   -7.5446 O.co2     1 ATP         0.3195
      5 PB          1.6694    1.8318   -6.1964 P.3       1 ATP        -1.1062
      6 O1B         0.5461    0.9176   -6.6324 O.co2     1 ATP         0.3195
      7 O2B         2.8305    2.1391   -7.1154 O.co2     1 ATP         0.3195
      8 O3B         1.0279    3.2394   -5.6708 O.3       1 ATP         0.4672
      9 PA          3.0683   -0.0853   -4.4294 P.3       1 ATP        -1.1062
     10 O1A         4.4204   -0.0240   -5.1060 O.co2     1 ATP         0.3195
     11 O2A         2.1435   -1.2619   -4.6544 O.co2     1 ATP         0.3195
     12 O3A         2.2592    1.2920   -4.7730 O.3       1 ATP         0.4672
     13 O5'         3.2903    0.1346   -2.8241 O.3       1 ATP         0.1618
     14 C5'         2.2816   -0.2918   -1.9206 C.3       1 ATP         0.1504
     15 C4'         2.7248    0.0226   -0.4980 C.3       1 ATP         0.1111
     16 O4'         2.4697    1.4219   -0.2462 O.3       1 ATP        -0.1436
     17 C3'         1.9404   -0.7419    0.5596 C.3       1 ATP         0.1111
     18 O3'         2.7418   -0.8086    1.7389 O.3       1 ATP        -0.2728
     19 C2'         0.7477    0.1630    0.7858 C.3       1 ATP         0.1111
     20 O2'         0.1373   -0.0577    2.0407 O.3       1 ATP        -0.2728
     21 C1'         1.3733    1.5427    0.6747 C.3       1 ATP         0.2693
     22 N9          0.4520    2.5240    0.1767 N.pl3     1 ATP        -0.3222
     23 C8         -0.7463    2.2774   -0.7501 C.ar      1 ATP         0.1640
     24 N7         -1.3714    3.4419   -0.9948 N.2       1 ATP        -0.1640
     25 C5         -0.6104    4.3223   -0.2723 C.ar      1 ATP         0.0820
     26 C6         -0.9062    5.7820   -0.2194 C.ar      1 ATP         0.1640
     27 N6         -1.9385    6.2713   -0.8881 N.pl3     1 ATP        -0.4916
     28 N1         -0.0613    6.4906    0.5336 N.pl3     1 ATP        -0.4390
     29 C2          1.0416    5.8662    1.2291 C.ar      1 ATP         0.5691
     30 N3          1.3146    4.5989    1.1954 N.ar      1 ATP        -0.4283
     31 C4          0.4541    3.8697    0.4273 C.ar      1 ATP         0.2226
     32 H5'1        1.3514    0.2330   -2.1577 H         1 ATP        -0.0393
     33 H5'2        2.1280   -1.3678   -2.0460 H         1 ATP        -0.0393
     34 H4'         3.8040   -0.1399   -0.4044 H         1 ATP        -0.0393
     35 H3'         1.6768   -1.7637    0.2732 H         1 ATP        -0.0393
     36 HO3'        3.5553   -1.2733    1.4913 H         1 ATP         0.2010
     37 H2'         0.0002   -0.0084   -0.0014 H         1 ATP        -0.0393
     38 HO2'       -0.1554   -0.9852    2.0577 H         1 ATP         0.2010
     39 H1'         1.7718    1.9211    1.6015 H         1 ATP        -0.0393
     40 H8         -1.1244    1.3534   -1.1987 H         1 ATP         0.0000
     41 HN61       -2.5259    5.6573   -1.4336 H         1 ATP         0.2048
     42 HN62       -2.1416    7.2600   -0.8539 H         1 ATP         0.2048
     43 H2          1.6509    6.5764    1.8088 H         1 ATP        -0.1292
     44 H44        -0.2190    7.4917    0.6033 H         1 ATP         0.2048
@<TRIPOS>BOND
     1    1    2 2
     2    1    3 1
     3    1    4 1
     4    1    8 1
     5    5    6 2
     6    5    7 1
     7    5    8 1
     8    5   12 1
     9    9   10 2
    10    9   11 1
    11    9   12 1
    12    9   13 1
    13   13   14 1
    14   14   15 1
    15   14   32 1
    16   14   33 1
    17   15   16 1
    18   15   17 1
    19   15   34 1
    20   16   21 1
    21   17   18 1
    22   17   19 1
    23   17   35 1
    24   18   36 1
    25   19   20 1
    26   19   21 1
    27   19   37 1
    28   20   38 1
    29   21   22 1
    30   21   39 1
    31   22   23 ar
    32   22   31 ar
    33   23   24 ar
    34   23   40 1
    35   24   25 ar
    36   25   26 ar
    37   25   31 ar
    38   26   27 1
    39   26   28 ar
    40   27   41 1
    41   27   42 1
    42   28   29 ar
    43   28   44 1
    44   29   30 ar
    45   29   43 1
    46   30   31 ar
@<TRIPOS>SUBSTRUCTURE
     1 ATP         1 GROUP 0 A     ****
@<TRIPOS>MOLECULE
[[[5-(6-amino-1,8-dihydropurine-6,8-diylium-7-id-9-yl)-3,4-dihydroxy-tetrahydrofuran-2-yl]methoxy-oxido-phosphoryl]oxy-oxido-phosphoryl] phosphate
   44    46     1     0     0
SMALL
USER_CHARGES

@<TRIPOS>ATOM
      1 PG          6.5155   -3.9184   -4.8519 P.3       1 ATP        -1.1921
      2 O1G         7.1641   -3.7115   -3.4872 O.co2     1 ATP         0.3195
      3 O2G         6.0686   -5.3505   -5.1253 O.co2     1 ATP         0.3195
      4 O3G         7.2666   -3.2655   -6.0075 O.co2     1 ATP         0.3195
      5 PB          4.8597   -1.4720   -4.4947 P.3       1 ATP        -1.1062
      6 O1B         5.2806   -1.1471   -3.0788 O.co2     1 ATP         0.3195
      7 O2B         5.3983   -0.6890   -5.6712 O.co2     1 ATP         0.3195
      8 O3B         5.1075   -3.0641   -4.7649 O.3       1 ATP         0.4672
      9 PA          2.1375   -2.2725   -3.6560 P.3       1 ATP        -1.1062
     10 O1A         2.4976   -3.7422   -3.6687 O.co2     1 ATP         0.3195
     11 O2A         0.7481   -1.8133   -4.0418 O.co2     1 ATP         0.3195
     12 O3A         3.2287   -1.4684   -4.5683 O.3       1 ATP         0.4672
     13 O5'         2.5245   -1.6648   -2.1878 O.3       1 ATP         0.1618
     14 C5'         2.2816   -0.2918   -1.9206 C.3       1 ATP         0.1504
     15 C4'         2.7248    0.0226   -0.4980 C.3       1 ATP         0.1111
     16 O4'         2.4697    1.4219   -0.2462 O.3       1 ATP        -0.1436
     17 C3'         1.9404   -0.7419    0.5596 C.3       1 ATP         0.1111
     18 O3'         2.7418   -0.8086    1.7389 O.3       1 ATP        -0.2728
     19 C2'         0.7477    0.1630    0.7858 C.3       1 ATP         0.1111
     20 O2'         0.1373   -0.0577    2.0407 O.3       1 ATP        -0.2728
     21 C1'         1.3733    1.5427    0.6747 C.3       1 ATP         0.2693
     22 N9          0.4520    2.5240    0.1767 N.pl3     1 ATP        -0.3222
     23 C8         -1.0660    2.5608    0.3999 C.ar      1 ATP         0.1640
     24 N7         -1.5852    3.6333   -0.2221 N.2       1 ATP        -0.1640
     25 C5         -0.4682    4.1996   -0.7771 C.ar      1 ATP         0.0820
     26 C6         -0.5216    5.4476   -1.5899 C.ar      1 ATP         0.1640
     27 N6         -1.6813    6.0510   -1.7982 N.pl3     1 ATP        -0.4916
     28 N1          0.6621    5.8575   -2.0523 N.pl3     1 ATP        -0.4390
     29 C2          1.8795    5.1301   -1.7717 C.ar      1 ATP         0.5691
     30 N3          1.9458    4.0434   -1.0670 N.ar      1 ATP        -0.4283
     31 C4          0.7388    3.6199   -0.5917 C.ar      1 ATP         0.2226
     32 H5'1        2.8432    0.3119   -2.6398 H         1 ATP        -0.0393
     33 H5'2        1.2128   -0.0927   -2.0428 H         1 ATP        -0.0393
     34 H4'         3.8040   -0.1399   -0.4044 H         1 ATP        -0.0393
     35 H3'         1.6768   -1.7637    0.2732 H         1 ATP        -0.0393
     36 HO3'        2.2231   -1.2979    2.3952 H         1 ATP         0.2010
     37 H2'         0.0002   -0.0084   -0.0014 H         1 ATP        -0.0393
     38 HO2'       -0.1554   -0.9852    2.0577 H         1 ATP         0.2010
     39 H1'         1.7718    1.9211    1.6015 H         1 ATP        -0.0393
     40 H8         -1.7235    1.8833    0.9537 H         1 ATP         0.0000
     41 HN61       -2.5296    5.6672   -1.4072 H         1 ATP         0.2048
     42 HN62       -1.7205    6.8969   -2.3483 H         1 ATP         0.2048
     43 H2          2.7750    5.5878   -2.2190 H         1 ATP        -0.1292
     44 H44         0.6808    6.7046   -2.6128 H         1 ATP         0.2048
@<TRIPOS>BOND
     1    1    2 2
     2    1    3 1
     3    1    4 1
     4    1    8 1
     5    5    6 2
     6    5    7 1
     7    5    8 1
     8    5   12 1
     9    9   10 2
    10    9   11 1
    11    9   12 1
    12    9   13 1
    13   13   14 1
    14   14   15 1
    15   14   32 1
    16   14   33 1
    17   15   16 1
    18   15   17 1
    19   15   34 1
    20   16   21 1
    21   17   18 1
    22   17   19 1
    23   17   35 1
    24   18   36 1
    25   19   20 1
    26   19   21 1
    27   19   37 1
    28   20   38 1
    29   21   22 1
    30   21   39 1
    31   22   23 ar
    32   22   31 ar
    33   23   24 ar
    34   23   40 1
    35   24   25 ar
    36   25   26 ar
    37   25   31 ar
    38   26   27 1
    39   26   28 ar
    40   27   41 1
    41   27   42 1
    42   28   29 ar
    43   28   44 1
    44   29   30 ar
    45   29   43 1
    46   30   31 ar
@<TRIPOS>SUBSTRUCTURE
     1 ATP         1 GROUP 0 A     ****
@<TRIPOS>MOLECULE
[[[5-(6-amino-1,8-dihydropurine-6,8-diylium-7-id-9-yl)-3,4-dihydroxy-tetrahydrofuran-2-yl]methoxy-oxido-phosphoryl]oxy-oxido-phosphoryl] phosphate
   44    46     1     0     0
SMALL
USER_CHARGES

@<TRIPOS>ATOM
      1 PG          3.2430   -7.5108    5.4371 P.3       1 ATP        -1.1921
      2 O1G         4.1483   -6.8925    4.3770 O.co2     1 ATP         0.3195
      3 O2G         3.5365   -7.0508    6.8611 O.co2     1 ATP         0.3195
      4 O3G         3.0483   -9.0166    5.2933 O.co2     1 ATP         0.3195
      5 PB          0.8398   -7.0005    3.7583 P.3       1 ATP        -1.1062
      6 O1B         1.5283   -6.2471    2.6422 O.co2     1 ATP         0.3195
      7 O2B         0.4066   -8.4387    3.5816 O.co2     1 ATP         0.3195
      8 O3B         1.7515   -6.8880    5.1094 O.3       1 ATP         0.4672
      9 PA         -0.5242   -4.5704    4.7529 P.3       1 ATP        -1.1062
     10 O1A         0.5074   -4.3598    5.8396 O.co2     1 ATP         0.3195
     11 O2A        -1.9751   -4.2070    4.9829 O.co2     1 ATP         0.3195
     12 O3A        -0.4439   -6.1272    4.2632 O.3       1 ATP         0.4672
     13 O5'         0.0118   -3.8395    3.3916 O.3       1 ATP         0.1618
     14 C5'        -0.7840   -3.8935    2.2172 C.3       1 ATP         0.1504
     15 C4'        -0.0724   -3.1466    1.1027 C.3       1 ATP         0.1111
     16 O4'        -0.8674   -3.1929   -0.0945 O.3       1 ATP        -0.1436
     17 C3'         0.1338   -1.6715    1.4027 C.3       1 ATP         0.1111
     18 O3'         1.2893   -1.4445    2.1808 O.3       1 ATP        -0.2728
     19 C2'         0.2158   -1.0724    0.0128 C.3       1 ATP         0.1111
     20 O2'         1.5141   -1.2448   -0.5513 O.3       1 ATP        -0.2728
     21 C1'        -0.7897   -1.9176   -0.7583 C.3       1 ATP         0.2693
     22 N9         -2.1040   -1.3333   -0.7704 N.pl3     1 ATP        -0.3222
     23 C8         -3.2124   -1.5345    0.2719 C.ar      1 ATP         0.1640
     24 N7         -4.2964   -0.8234   -0.0828 N.2       1 ATP        -0.1640
     25 C5         -3.8754   -0.2386   -1.2478 C.ar      1 ATP         0.0820
     26 C6         -4.7432    0.6719   -2.0470 C.ar      1 ATP         0.1640
     27 N6         -5.9725    0.9415   -1.6366 N.pl3     1 ATP        -0.4916
     28 N1         -4.1703    1.1517   -3.1536 N.pl3     1 ATP        -0.4390
     29 C2         -2.8174    0.7994   -3.5215 C.ar      1 ATP         0.5691
     30 N3         -2.0475    0.0097   -2.8393 N.ar      1 ATP        -0.4283
     31 C4         -2.6278   -0.4836   -1.7071 C.ar      1 ATP         0.2226
     32 H5'1       -0.9348   -4.9415    1.9415 H         1 ATP        -0.0393
     33 H5'2       -1.7548   -3.4350    2.4278 H         1 ATP        -0.0393
     34 H4'         0.8871   -3.6466    0.8809 H         1 ATP        -0.0393
     35 H3'        -0.7370   -1.2334    1.9869 H         1 ATP        -0.0393
     36 HO3'        1.1625   -1.9325    3.0084 H         1 ATP         0.2010
     37 H2'        -0.0343   -0.0280    0.0196 H         1 ATP        -0.0393
     38 HO2'        2.1443   -0.7955    0.0378 H         1 ATP         0.2010
     39 H1'        -0.5175   -2.1046   -1.7826 H         1 ATP        -0.0393
     40 H8         -3.2310   -2.1319    1.1889 H         1 ATP         0.0000
     41 HN61       -6.3231    0.5316   -0.7829 H         1 ATP         0.2048
     42 HN62       -6.5628    1.5584   -2.1760 H         1 ATP         0.2048
     43 H2         -2.4822    1.2710   -4.4579 H         1 ATP        -0.1292
     44 H44        -4.7200    1.7780   -3.7346 H         1 ATP         0.2048
@<TRIPOS>BOND
     1    1    2 2
     2    1    3 1
     3    1    4 1
     4    1    8 1
     5    5    6 2
     6    5    7 1
     7    5    8 1
     8    5   12 1
     9    9   10 2
    10    9   11 1
    11    9   12 1
    12    9   13 1
    13   13   14 1
    14   14   15 1
    15   14   32 1
    16   14   33 1
    17   15   16 1
    18   15   17 1
    19   15   34 1
    20   16   21 1
    21   17   18 1
    22   17   19 1
    23   17   35 1
    24   18   36 1
    25   19   20 1
    26   19   21 1
    27   19   37 1
    28   20   38 1
    29   21   22 1
    30   21   39 1
    31   22   23 ar
    32   22   31 ar
    33   23   24 ar
    34   23   40 1
    35   24   25 ar
    36   25   26 ar
    37   25   31 ar
    38   26   27 1
    39   26   28 ar
    40   27   41 1
    41   27   42 1
    42   28   29 ar
    43   28   44 1
    44   29   30 ar
    45   29   43 1
    46   30   31 ar
@<TRIPOS>SUBSTRUCTURE
     1 ATP         1 GROUP 0 A     ****
@<TRIPOS>MOLECULE
[[[5-(6-amino-1,8-dihydropurine-6,8-diylium-7-id-9-yl)-3,4-dihydroxy-tetrahydrofuran-2-yl]methoxy-oxido-phosphoryl]oxy-oxido-phosphoryl] phosphate
   44    46     1     0     0
SMALL
USER_CHARGES

@<TRIPOS>ATOM
      1 PG         -0.4022   -2.9255   -4.6044 P.3       1 ATP        -1.1921
      2 O1G        -1.6700   -2.1134   -4.8474 O.co2     1 ATP         0.3195
      3 O2G        -0.5687   -4.4276   -4.8082 O.co2     1 ATP         0.3195
      4 O3G         0.3505   -2.5458   -3.3334 O.co2     1 ATP         0.3195
      5 PB          1.2076   -0.9847   -6.1842 P.3       1 ATP        -1.1062
      6 O1B         2.2314   -1.1312   -7.2877 O.co2     1 ATP         0.3195
      7 O2B         0.0541   -0.0146   -6.3098 O.co2     1 ATP         0.3195
      8 O3B         0.6145   -2.4621   -5.8173 O.3       1 ATP         0.4672
      9 PA          2.8629    0.6171   -4.3271 P.3       1 ATP        -1.1062
     10 O1A         1.9237    1.7962   -4.1954 O.co2     1 ATP         0.3195
     11 O2A         4.0968    0.7049   -5.1988 O.co2     1 ATP         0.3195
     12 O3A         1.9898   -0.6867   -4.7825 O.3       1 ATP         0.4672
     13 O5'         3.2903    0.1346   -2.8241 O.3       1 ATP         0.1618
     14 C5'         2.2816   -0.2918   -1.9206 C.3       1 ATP         0.1504
     15 C4'         2.7248    0.0226   -0.4980 C.3       1 ATP         0.1111
     16 O4'         2.4697    1.4219   -0.2462 O.3       1 ATP        -0.1436
     17 C3'         1.9404   -0.7419    0.5596 C.3       1 ATP         0.1111
     18 O3'         2.7418   -0.8086    1.7389 O.3       1 ATP        -0.2728
     19 C2'         0.7477    0.1630    0.7858 C.3       1 ATP         0.1111
     20 O2'         0.1373   -0.0577    2.0407 O.3       1 ATP        -0.2728
     21 C1'         1.3733    1.5427    0.6747 C.3       1 ATP         0.2693
     22 N9          0.4520    2.5240    0.1767 N.pl3     1 ATP        -0.3222
     23 C8         -1.0660    2.5608    0.3999 C.ar      1 ATP         0.1640
     24 N7         -1.5852    3.6333   -0.2221 N.2       1 ATP        -0.1640
     25 C5         -0.4682    4.1996   -0.7771 C.ar      1 ATP         0.0820
     26 C6         -0.5216    5.4476   -1.5899 C.ar      1 ATP         0.1640
     27 N6         -1.6813    6.0510   -1.7982 N.pl3     1 ATP        -0.4916
     28 N1          0.6621    5.8575   -2.0523 N.pl3     1 ATP        -0.4390
     29 C2          1.8795    5.1301   -1.7717 C.ar      1 ATP         0.5691
     30 N3          1.9458    4.0434   -1.0670 N.ar      1 ATP        -0.4283
     31 C4          0.7388    3.6199   -0.5917 C.ar      1 ATP         0.2226
     32 H5'1        1.3514    0.2330   -2.1577 H         1 ATP        -0.0393
     33 H5'2        2.1280   -1.3678   -2.0460 H         1 ATP        -0.0393
     34 H4'         3.8040   -0.1399   -0.4044 H         1 ATP        -0.0393
     35 H3'         1.6768   -1.7637    0.2732 H         1 ATP        -0.0393
     36 HO3'        2.2231   -1.2979    2.3952 H         1 ATP         0.2010
     37 H2'         0.0002   -0.0084   -0.0014 H         1 ATP        -0.0393
     38 HO2'       -0.1554   -0.9852    2.0577 H         1 ATP         0.2010
     39 H1'         1.7718    1.9211    1.6015 H         1 ATP        -0.0393
     40 H8         -1.7235    1.8833    0.9537 H         1 ATP         0.0000
     41 HN61       -2.5296    5.6672   -1.4072 H         1 ATP         0.2048
     42 HN62       -1.7205    6.8969   -2.3483 H         1 ATP         0.2048
     43 H2          2.7750    5.5878   -2.2190 H         1 ATP        -0.1292
     44 H44         0.6808    6.7046   -2.6128 H         1 ATP         0.2048
@<TRIPOS>BOND
     1    1    2 2
     2    1    3 1
     3    1    4 1
     4    1    8 1
     5    5    6 2
     6    5    7 1
     7    5    8 1
     8    5   12 1
     9    9   10 2
    10    9   11 1
    11    9   12 1
    12    9   13 1
    13   13   14 1
    14   14   15 1
    15   14   32 1
    16   14   33 1
    17   15   16 1
    18   15   17 1
    19   15   34 1
    20   16   21 1
    21   17   18 1
    22   17   19 1
    23   17   35 1
    24   18   36 1
    25   19   20 1
    26   19   21 1
    27   19   37 1
    28   20   38 1
    29   21   22 1
    30   21   39 1
    31   22   23 ar
    32   22   31 ar
    33   23   24 ar
    34   23   40 1
    35   24   25 ar
    36   25   26 ar
    37   25   31 ar
    38   26   27 1
    39   26   28 ar
    40   27   41 1
    41   27   42 1
    42   28   29 ar
    43   28   44 1
    44   29   30 ar
    45   29   43 1
    46   30   31 ar
@<TRIPOS>SUBSTRUCTURE
     1 ATP         1 GROUP 0 A     ****
@<TRIPOS>MOLECULE
[[[5-(6-amino-1,8-dihydropurine-6,8-diylium-7-id-9-yl)-3,4-dihydroxy-tetrahydrofuran-2-yl]methoxy-oxido-phosphoryl]oxy-oxido-phosphoryl] phosphate
   44    46     1     0     0
SMALL
USER_CHARGES

@<TRIPOS>ATOM
      1 PG          7.1870   -2.0715   -0.3508 P.3       1 ATP        -1.1921
      2 O1G         6.2282   -0.8874   -0.2834 O.co2     1 ATP         0.3195
      3 O2G         7.3576   -2.8186    0.9677 O.co2     1 ATP         0.3195
      4 O3G         8.4951   -1.7774   -1.0775 O.co2     1 ATP         0.3195
      5 PB          5.9419   -3.0032   -2.8877 P.3       1 ATP        -1.1062
      6 O1B         7.1183   -2.5465   -3.7214 O.co2     1 ATP         0.3195
      7 O2B         5.1398   -4.2274   -3.2692 O.co2     1 ATP         0.3195
      8 O3B         6.4251   -3.1541   -1.3344 O.3       1 ATP         0.4672
      9 PA          4.0014   -0.9657   -3.8031 P.3       1 ATP        -1.1062
     10 O1A         2.9346   -1.9191   -4.2956 O.co2     1 ATP         0.3195
     11 O2A         4.9153   -0.2567   -4.7789 O.co2     1 ATP         0.3195
     12 O3A         4.9173   -1.7464   -2.6979 O.3       1 ATP         0.4672
     13 O5'         3.2903    0.1346   -2.8241 O.3       1 ATP         0.1618
     14 C5'         2.2816   -0.2918   -1.9206 C.3       1 ATP         0.1504
     15 C4'         2.7248    0.0226   -0.4980 C.3       1 ATP         0.1111
     16 O4'         2.4697    1.4219   -0.2462 O.3       1 ATP        -0.1436
     17 C3'         1.9404   -0.7419    0.5596 C.3       1 ATP         0.1111
     18 O3'         2.7418   -0.8086    1.7389 O.3       1 ATP        -0.2728
     19 C2'         0.7477    0.1630    0.7858 C.3       1 ATP         0.1111
     20 O2'         0.1373   -0.0577    2.0407 O.3       1 ATP        -0.2728
     21 C1'         1.3733    1.5427    0.6747 C.3       1 ATP         0.2693
     22 N9          0.4520    2.5240    0.1767 N.pl3     1 ATP        -0.3222
     23 C8          0.5793    3.3338   -1.1209 C.ar      1 ATP         0.1640
     24 N7         -0.4807    4.1508   -1.2458 N.2       1 ATP        -0.1640
     25 C5         -1.1921    3.8572   -0.1126 C.ar      1 ATP         0.0820
     26 C6         -2.4855    4.5203    0.2163 C.ar      1 ATP         0.1640
     27 N6         -2.9873    5.4319   -0.6020 N.pl3     1 ATP        -0.4916
     28 N1         -3.0414    4.1119    1.3596 N.pl3     1 ATP        -0.4390
     29 C2         -2.4169    3.1071    2.1904 C.ar      1 ATP         0.5691
     30 N3         -1.2928    2.5191    1.9210 N.ar      1 ATP        -0.4283
     31 C4         -0.7202    2.9326    0.7534 C.ar      1 ATP         0.2226
     32 H5'1        1.3514    0.2330   -2.1577 H         1 ATP        -0.0393
     33 H5'2        2.1280   -1.3678   -2.0460 H         1 ATP        -0.0393
     34 H4'         3.8040   -0.1399   -0.4044 H         1 ATP        -0.0393
     35 H3'         1.6768   -1.7637    0.2732 H         1 ATP        -0.0393
     36 HO3'        3.5553   -1.2733    1.4913 H         1 ATP         0.2010
     37 H2'         0.0002   -0.0084   -0.0014 H         1 ATP        -0.0393
     38 HO2'       -0.1554   -0.9852    2.0577 H         1 ATP         0.2010
     39 H1'         1.7718    1.9211    1.6015 H         1 ATP        -0.0393
     40 H8          1.3565    3.3309   -1.8916 H         1 ATP         0.0000
     41 HN61       -2.4952    5.6785   -1.4487 H         1 ATP         0.2048
     42 HN62       -3.8637    5.8828   -0.3819 H         1 ATP         0.2048
     43 H2         -2.9911    2.8734    3.1000 H         1 ATP        -0.1292
     44 H44        -3.9253    4.5332    1.6302 H         1 ATP         0.2048
@<TRIPOS>BOND
     1    1    2 2
     2    1    3 1
     3    1    4 1
     4    1    8 1
     5    5    6 2
     6    5    7 1
     7    5    8 1
     8    5   12 1
     9    9   10 2
    10    9   11 1
    11    9   12 1
    12    9   13 1
    13   13   14 1
    14   14   15 1
    15   14   32 1
    16   14   33 1
    17   15   16 1
    18   15   17 1
    19   15   34 1
    20   16   21 1
    21   17   18 1
    22   17   19 1
    23   17   35 1
    24   18   36 1
    25   19   20 1
    26   19   21 1
    27   19   37 1
    28   20   38 1
    29   21   22 1
    30   21   39 1
    31   22   23 ar
    32   22   31 ar
    33   23   24 ar
    34   23   40 1
    35   24   25 ar
    36   25   26 ar
    37   25   31 ar
    38   26   27 1
    39   26   28 ar
    40   27   41 1
    41   27   42 1
    42   28   29 ar
    43   28   44 1
    44   29   30 ar
    45   29   43 1
    46   30   31 ar
@<TRIPOS>SUBSTRUCTURE
     1 ATP         1 GROUP 0 A     ****
@<TRIPOS>MOLECULE
[[[5-(6-amino-1,8-dihydropurine-6,8-diylium-7-id-9-yl)-3,4-dihydroxy-tetrahydrofuran-2-yl]methoxy-oxido-phosphoryl]oxy-oxido-phosphoryl] phosphate
   44    46     1     0     0
SMALL
USER_CHARGES

@<TRIPOS>ATOM
      1 PG         -5.8700   -7.3517   -0.0489 P.3       1 ATP        -1.1921
      2 O1G        -5.6754   -8.8425   -0.3048 O.co2     1 ATP         0.3195
      3 O2G        -7.1759   -6.9995    0.6555 O.co2     1 ATP         0.3195
      4 O3G        -5.5447   -6.4634   -1.2452 O.co2     1 ATP         0.3195
      5 PB         -3.0762   -7.1035    0.9446 P.3       1 ATP        -1.1062
      6 O1B        -2.7079   -8.5691    0.8826 O.co2     1 ATP         0.3195
      7 O2B        -2.5770   -6.1258   -0.0958 O.co2     1 ATP         0.3195
      8 O3B        -4.7012   -6.9736    1.0515 O.3       1 ATP         0.4672
      9 PA         -1.2298   -6.3297    3.1234 P.3       1 ATP        -1.1062
     10 O1A        -0.4763   -7.6390    3.0349 O.co2     1 ATP         0.3195
     11 O2A        -1.4176   -5.6338    4.4540 O.co2     1 ATP         0.3195
     12 O3A        -2.6931   -6.5311    2.4248 O.3       1 ATP         0.4672
     13 O5'        -0.5687   -5.2869    2.0510 O.3       1 ATP         0.1618
     14 C5'        -0.7840   -3.8935    2.2172 C.3       1 ATP         0.1504
     15 C4'        -0.0724   -3.1466    1.1027 C.3       1 ATP         0.1111
     16 O4'        -0.8674   -3.1929   -0.0945 O.3       1 ATP        -0.1436
     17 C3'         0.1338   -1.6715    1.4027 C.3       1 ATP         0.1111
     18 O3'         1.2893   -1.4445    2.1808 O.3       1 ATP        -0.2728
     19 C2'         0.2158   -1.0724    0.0128 C.3       1 ATP         0.1111
     20 O2'         1.5141   -1.2448   -0.5513 O.3       1 ATP        -0.2728
     21 C1'        -0.7897   -1.9176   -0.7583 C.3       1 ATP         0.2693
     22 N9         -2.1040   -1.3333   -0.7704 N.pl3     1 ATP        -0.3222
     23 C8         -3.2124   -1.5345    0.2719 C.ar      1 ATP         0.1640
     24 N7         -4.2964   -0.8234   -0.0828 N.2       1 ATP        -0.1640
     25 C5         -3.8754   -0.2386   -1.2478 C.ar      1 ATP         0.0820
     26 C6         -4.7432    0.6719   -2.0470 C.ar      1 ATP         0.1640
     27 N6         -5.9725    0.9415   -1.6366 N.pl3     1 ATP        -0.4916
     28 N1         -4.1703    1.1517   -3.1536 N.pl3     1 ATP        -0.4390
     29 C2         -2.8174    0.7994   -3.5215 C.ar      1 ATP         0.5691
     30 N3         -2.0475    0.0097   -2.8393 N.ar      1 ATP        -0.4283
     31 C4         -2.6278   -0.4836   -1.7071 C.ar      1 ATP         0.2226
     32 H5'1       -1.8598   -3.6968    2.1850 H         1 ATP        -0.0393
     33 H5'2       -0.3933   -3.5903    3.1931 H         1 ATP        -0.0393
     34 H4'         0.8871   -3.6466    0.8809 H         1 ATP        -0.0393
     35 H3'        -0.7370   -1.2334    1.9869 H         1 ATP        -0.0393
     36 HO3'        1.3407   -0.4871    2.3218 H         1 ATP         0.2010
     37 H2'        -0.0343   -0.0280    0.0196 H         1 ATP        -0.0393
     38 HO2'        1.4978   -0.8409   -1.4361 H         1 ATP         0.2010
     39 H1'        -0.5175   -2.1046   -1.7826 H         1 ATP        -0.0393
     40 H8         -3.2310   -2.1319    1.1889 H         1 ATP         0.0000
     41 HN61       -6.3231    0.5316   -0.7829 H         1 ATP         0.2048
     42 HN62       -6.5628    1.5584   -2.1760 H         1 ATP         0.2048
     43 H2         -2.4822    1.2710   -4.4579 H         1 ATP        -0.1292
     44 H44        -4.7200    1.7780   -3.7346 H         1 ATP         0.2048
@<TRIPOS>BOND
     1    1    2 2
     2    1    3 1
     3    1    4 1
     4    1    8 1
     5    5    6 2
     6    5    7 1
     7    5    8 1
     8    5   12 1
     9    9   10 2
    10    9   11 1
    11    9   12 1
    12    9   13 1
    13   13   14 1
    14   14   15 1
    15   14   32 1
    16   14   33 1
    17   15   16 1
    18   15   17 1
    19   15   34 1
    20   16   21 1
    21   17   18 1
    22   17   19 1
    23   17   35 1
    24   18   36 1
    25   19   20 1
    26   19   21 1
    27   19   37 1
    28   20   38 1
    29   21   22 1
    30   21   39 1
    31   22   23 ar
    32   22   31 ar
    33   23   24 ar
    34   23   40 1
    35   24   25 ar
    36   25   26 ar
    37   25   31 ar
    38   26   27 1
    39   26   28 ar
    40   27   41 1
    41   27   42 1
    42   28   29 ar
    43   28   44 1
    44   29   30 ar
    45   29   43 1
    46   30   31 ar
@<TRIPOS>SUBSTRUCTURE
     1 ATP         1 GROUP 0 A     ****
@<TRIPOS>MOLECULE
[[[5-(6-amino-1,8-dihydropurine-6,8-diylium-7-id-9-yl)-3,4-dihydroxy-tetrahydrofuran-2-yl]methoxy-oxido-phosphoryl]oxy-oxido-phosphoryl] phosphate
   44    46     1     0     0
SMALL
USER_CHARGES

@<TRIPOS>ATOM
      1 PG          2.7141   -4.8556   -3.7908 P.3       1 ATP        -1.1921
      2 O1G         1.3278   -5.1094   -4.3736 O.co2     1 ATP         0.3195
      3 O2G         3.5207   -6.1196   -3.5128 O.co2     1 ATP         0.3195
      4 O3G         2.7398   -3.8348   -2.6580 O.co2     1 ATP         0.3195
      5 PB          3.2191   -2.7091   -5.7888 P.3       1 ATP        -1.1062
      6 O1B         4.3763   -2.3904   -6.7090 O.co2     1 ATP         0.3195
      7 O2B         1.7974   -2.7488   -6.3030 O.co2     1 ATP         0.3195
      8 O3B         3.5362   -4.1104   -5.0109 O.3       1 ATP         0.4672
      9 PA          3.0683   -0.0853   -4.4294 P.3       1 ATP        -1.1062
     10 O1A         1.6217    0.2192   -4.7522 O.co2     1 ATP         0.3195
     11 O2A         4.1890    0.5887   -5.1908 O.co2     1 ATP         0.3195
     12 O3A         3.2815   -1.7036   -4.5041 O.3       1 ATP         0.4672
     13 O5'         3.2903    0.1346   -2.8241 O.3       1 ATP         0.1618
     14 C5'         2.2816   -0.2918   -1.9206 C.3       1 ATP         0.1504
     15 C4'         2.7248    0.0226   -0.4980 C.3       1 ATP         0.1111
     16 O4'         2.4697    1.4219   -0.2462 O.3       1 ATP        -0.1436
     17 C3'         1.9404   -0.7419    0.5596 C.3       1 ATP         0.1111
     18 O3'         2.7418   -0.8086    1.7389 O.3       1 ATP        -0.2728
     19 C2'         0.7477    0.1630    0.7858 C.3       1 ATP         0.1111
     20 O2'         0.1373   -0.0577    2.0407 O.3       1 ATP        -0.2728
     21 C1'         1.3733    1.5427    0.6747 C.3       1 ATP         0.2693
     22 N9          0.4520    2.5240    0.1767 N.pl3     1 ATP        -0.3222
     23 C8         -0.7463    2.2774   -0.7501 C.ar      1 ATP         0.1640
     24 N7         -1.3714    3.4419   -0.9948 N.2       1 ATP        -0.1640
     25 C5         -0.6104    4.3223   -0.2723 C.ar      1 ATP         0.0820
     26 C6         -0.9062    5.7820   -0.2194 C.ar      1 ATP         0.1640
     27 N6         -1.9385    6.2713   -0.8881 N.pl3     1 ATP        -0.4916
     28 N1         -0.0613    6.4906    0.5336 N.pl3     1 ATP        -0.4390
     29 C2          1.0416    5.8662    1.2291 C.ar      1 ATP         0.5691
     30 N3          1.3146    4.5989    1.1954 N.ar      1 ATP        -0.4283
     31 C4          0.4541    3.8697    0.4273 C.ar      1 ATP         0.2226
     32 H5'1        1.3514    0.2330   -2.1577 H         1 ATP        -0.0393
     33 H5'2        2.1280   -1.3678   -2.0460 H         1 ATP        -0.0393
     34 H4'         3.8040   -0.1399   -0.4044 H         1 ATP        -0.0393
     35 H3'         1.6768   -1.7637    0.2732 H         1 ATP        -0.0393
     36 HO3'        3.5553   -1.2733    1.4913 H         1 ATP         0.2010
     37 H2'         0.0002   -0.0084   -0.0014 H         1 ATP        -0.0393
     38 HO2'       -0.6132    0.5577    2.1063 H         1 ATP         0.2010
     39 H1'         1.7718    1.9211    1.6015 H         1 ATP        -0.0393
     40 H8         -1.1244    1.3534   -1.1987 H         1 ATP         0.0000
     41 HN61       -2.5259    5.6573   -1.4336 H         1 ATP         0.2048
     42 HN62       -2.1416    7.2600   -0.8539 H         1 ATP         0.2048
     43 H2          1.6509    6.5764    1.8088 H         1 ATP        -0.1292
     44 H44        -0.2190    7.4917    0.6033 H         1 ATP         0.2048
@<TRIPOS>BOND
     1    1    2 2
     2    1    3 1
     3    1    4 1
     4    1    8 1
     5    5    6 2
     6    5    7 1
     7    5    8 1
     8    5   12 1
     9    9   10 2
    10    9   11 1
    11    9   12 1
    12    9   13 1
    13   13   14 1
    14   14   15 1
    15   14   32 1
    16   14   33 1
    17   15   16 1
    18   15   17 1
    19   15   34 1
    20   16   21 1
    21   17   18 1
    22   17   19 1
    23   17   35 1
    24   18   36 1
    25   19   20 1
    26   19   21 1
    27   19   37 1
    28   20   38 1
    29   21   22 1
    30   21   39 1
    31   22   23 ar
    32   22   31 ar
    33   23   24 ar
    34   23   40 1
    35   24   25 ar
    36   25   26 ar
    37   25   31 ar
    38   26   27 1
    39   26   28 ar
    40   27   41 1
    41   27   42 1
    42   28   29 ar
    43   28   44 1
    44   29   30 ar
    45   29   43 1
    46   30   31 ar
@<TRIPOS>SUBSTRUCTURE
     1 ATP         1 GROUP 0 A     ****
@<TRIPOS>MOLECULE
[[[5-(6-amino-1,8-dihydropurine-6,8-diylium-7-id-9-yl)-3,4-dihydroxy-tetrahydrofuran-2-yl]methoxy-oxido-phosphoryl]oxy-oxido-phosphoryl] phosphate
   44    46     1     0     0
SMALL
USER_CHARGES

@<TRIPOS>ATOM
      1 PG         -0.3008   -2.0437   -5.8034 P.3       1 ATP        -1.1921
      2 O1G        -0.8866   -1.0223   -4.8342 O.co2     1 ATP         0.3195
      3 O2G        -1.2155   -2.4001   -6.9704 O.co2     1 ATP         0.3195
      4 O3G         0.3498   -3.2464   -5.1279 O.co2     1 ATP         0.3195
      5 PB          2.3023   -0.6025   -5.8321 P.3       1 ATP        -1.1062
      6 O1B         2.9795   -1.6526   -4.9798 O.co2     1 ATP         0.3195
      7 O2B         3.0654    0.1538   -6.8965 O.co2     1 ATP         0.3195
      8 O3B         0.9652   -1.2549   -6.5070 O.3       1 ATP         0.4672
      9 PA          2.2228    1.5519   -3.8055 P.3       1 ATP        -1.1062
     10 O1A         1.1005    2.1840   -3.0113 O.co2     1 ATP         0.3195
     11 O2A         3.2207    2.4102   -4.5520 O.co2     1 ATP         0.3195
     12 O3A         1.5712    0.4761   -4.8485 O.3       1 ATP         0.4672
     13 O5'         3.0213    0.5153   -2.8245 O.3       1 ATP         0.1618
     14 C5'         2.2816   -0.2918   -1.9206 C.3       1 ATP         0.1504
     15 C4'         2.7248    0.0226   -0.4980 C.3       1 ATP         0.1111
     16 O4'         2.4697    1.4219   -0.2462 O.3       1 ATP        -0.1436
     17 C3'         1.9404   -0.7419    0.5596 C.3       1 ATP         0.1111
     18 O3'         2.7418   -0.8086    1.7389 O.3       1 ATP        -0.2728
     19 C2'         0.7477    0.1630    0.7858 C.3       1 ATP         0.1111
     20 O2'         0.1373   -0.0577    2.0407 O.3       1 ATP        -0.2728
     21 C1'         1.3733    1.5427    0.6747 C.3       1 ATP         0.2693
     22 N9          0.4520    2.5240    0.1767 N.pl3     1 ATP        -0.3222
     23 C8         -1.0247    2.3053   -0.1800 C.ar      1 ATP         0.1640
     24 N7         -1.5580    3.4612   -0.6116 N.2       1 ATP        -0.1640
     25 C5         -0.4873    4.3110   -0.5222 C.ar      1 ATP         0.0820
     26 C6         -0.5728    5.7505   -0.8981 C.ar      1 ATP         0.1640
     27 N6         -1.7163    6.2514   -1.3385 N.pl3     1 ATP        -0.4916
     28 N1          0.5667    6.4301   -0.7475 N.pl3     1 ATP        -0.4390
     29 C2          1.7697    5.7952   -0.2579 C.ar      1 ATP         0.5691
     30 N3          1.8633    4.5450    0.0742 N.ar      1 ATP        -0.4283
     31 C4          0.7014    3.8457   -0.0776 C.ar      1 ATP         0.2226
     32 H5'1        1.2163   -0.0770   -2.0471 H         1 ATP        -0.0393
     33 H5'2        2.4655   -1.3443   -2.1563 H         1 ATP        -0.0393
     34 H4'         3.8040   -0.1399   -0.4044 H         1 ATP        -0.0393
     35 H3'         1.6768   -1.7637    0.2732 H         1 ATP        -0.0393
     36 HO3'        2.2231   -1.2979    2.3952 H         1 ATP         0.2010
     37 H2'         0.0002   -0.0084   -0.0014 H         1 ATP        -0.0393
     38 HO2'       -0.1554   -0.9852    2.0577 H         1 ATP         0.2010
     39 H1'         1.7718    1.9211    1.6015 H         1 ATP        -0.0393
     40 H8         -1.6458    1.4054   -0.1318 H         1 ATP         0.0000
     41 HN61       -2.5307    5.6598   -1.4199 H         1 ATP         0.2048
     42 HN62       -1.7773    7.2266   -1.5938 H         1 ATP         0.2048
     43 H2          2.6279    6.4808   -0.1872 H         1 ATP        -0.1292
     44 H44         0.5621    7.4166   -0.9900 H         1 ATP         0.2048
@<TRIPOS>BOND
     1    1    2 2
     2    1    3 1
     3    1    4 1
     4    1    8 1
     5    5    6 2
     6    5    7 1
     7    5    8 1
     8    5   12 1
     9    9   10 2
    10    9   11 1
    11    9   12 1
    12    9   13 1
    13   13   14 1
    14   14   15 1
    15   14   32 1
    16   14   33 1
    17   15   16 1
    18   15   17 1
    19   15   34 1
    20   16   21 1
    21   17   18 1
    22   17   19 1
    23   17   35 1
    24   18   36 1
    25   19   20 1
    26   19   21 1
    27   19   37 1
    28   20   38 1
    29   21   22 1
    30   21   39 1
    31   22   23 ar
    32   22   31 ar
    33   23   24 ar
    34   23   40 1
    35   24   25 ar
    36   25   26 ar
    37   25   31 ar
    38   26   27 1
    39   26   28 ar
    40   27   41 1
    41   27   42 1
    42   28   29 ar
    43   28   44 1
    44   29   30 ar
    45   29   43 1
    46   30   31 ar
@<TRIPOS>SUBSTRUCTURE
     1 ATP         1 GROUP 0 A     ****
@<TRIPOS>MOLECULE
[[[5-(6-amino-1,8-dihydropurine-6,8-diylium-7-id-9-yl)-3,4-dihydroxy-tetrahydrofuran-2-yl]methoxy-oxido-phosphoryl]oxy-oxido-phosphoryl] phosphate
   44    46     1     0     0
SMALL
USER_CHARGES

@<TRIPOS>ATOM
      1 PG          6.0861    5.4988   -4.0620 P.3       1 ATP        -1.1921
      2 O1G         7.0780    5.8924   -2.9724 O.co2     1 ATP         0.3195
      3 O2G         6.7320    4.9945   -5.3482 O.co2     1 ATP         0.3195
      4 O3G         4.9621    6.5065   -4.2792 O.co2     1 ATP         0.3195
      5 PB          4.4263    4.0139   -2.0887 P.3       1 ATP        -1.1062
      6 O1B         5.3338    4.1848   -0.8908 O.co2     1 ATP         0.3195
      7 O2B         3.1604    4.8284   -2.2347 O.co2     1 ATP         0.3195
      8 O3B         5.3156    4.1755   -3.4496 O.3       1 ATP         0.4672
      9 PA          3.2351    1.6560   -3.4214 P.3       1 ATP        -1.1062
     10 O1A         4.0724    1.6996   -4.6810 O.co2     1 ATP         0.3195
     11 O2A         1.8026    2.1439   -3.4277 O.co2     1 ATP         0.3195
     12 O3A         4.0492    2.4323   -2.2364 O.3       1 ATP         0.4672
     13 O5'         3.2903    0.1346   -2.8241 O.3       1 ATP         0.1618
     14 C5'         2.2816   -0.2918   -1.9206 C.3       1 ATP         0.1504
     15 C4'         2.7248    0.0226   -0.4980 C.3       1 ATP         0.1111
     16 O4'         2.4697    1.4219   -0.2462 O.3       1 ATP        -0.1436
     17 C3'         1.9404   -0.7419    0.5596 C.3       1 ATP         0.1111
     18 O3'         2.7418   -0.8086    1.7389 O.3       1 ATP        -0.2728
     19 C2'         0.7477    0.1630    0.7858 C.3       1 ATP         0.1111
     20 O2'         0.1373   -0.0577    2.0407 O.3       1 ATP        -0.2728
     21 C1'         1.3733    1.5427    0.6747 C.3       1 ATP         0.2693
     22 N9          0.4520    2.5240    0.1767 N.pl3     1 ATP        -0.3222
     23 C8         -0.7463    2.2774   -0.7501 C.ar      1 ATP         0.1640
     24 N7         -1.3714    3.4419   -0.9948 N.2       1 ATP        -0.1640
     25 C5         -0.6104    4.3223   -0.2723 C.ar      1 ATP         0.0820
     26 C6         -0.9062    5.7820   -0.2194 C.ar      1 ATP         0.1640
     27 N6         -1.9385    6.2713   -0.8881 N.pl3     1 ATP        -0.4916
     28 N1         -0.0613    6.4906    0.5336 N.pl3     1 ATP        -0.4390
     29 C2          1.0416    5.8662    1.2291 C.ar      1 ATP         0.5691
     30 N3          1.3146    4.5989    1.1954 N.ar      1 ATP        -0.4283
     31 C4          0.4541    3.8697    0.4273 C.ar      1 ATP         0.2226
     32 H5'1        1.3514    0.2330   -2.1577 H         1 ATP        -0.0393
     33 H5'2        2.1280   -1.3678   -2.0460 H         1 ATP        -0.0393
     34 H4'         3.8040   -0.1399   -0.4044 H         1 ATP        -0.0393
     35 H3'         1.6768   -1.7637    0.2732 H         1 ATP        -0.0393
     36 HO3'        2.2231   -1.2979    2.3952 H         1 ATP         0.2010
     37 H2'         0.0002   -0.0084   -0.0014 H         1 ATP        -0.0393
     38 HO2'       -0.1554   -0.9852    2.0577 H         1 ATP         0.2010
     39 H1'         1.7718    1.9211    1.6015 H         1 ATP        -0.0393
     40 H8         -1.1244    1.3534   -1.1987 H         1 ATP         0.0000
     41 HN61       -2.5259    5.6573   -1.4336 H         1 ATP         0.2048
     42 HN62       -2.1416    7.2600   -0.8539 H         1 ATP         0.2048
     43 H2          1.6509    6.5764    1.8088 H         1 ATP        -0.1292
     44 H44        -0.2190    7.4917    0.6033 H         1 ATP         0.2048
@<TRIPOS>BOND
     1    1    2 2
     2    1    3 1
     3    1    4 1
     4    1    8 1
     5    5    6 2
     6    5    7 1
     7    5    8 1
     8    5   12 1
     9    9   10 2
    10    9   11 1
    11    9   12 1
    12    9   13 1
    13   13   14 1
    14   14   15 1
    15   14   32 1
    16   14   33 1
    17   15   16 1
    18   15   17 1
    19   15   34 1
    20   16   21 1
    21   17   18 1
    22   17   19 1
    23   17   35 1
    24   18   36 1
    25   19   20 1
    26   19   21 1
    27   19   37 1
    28   20   38 1
    29   21   22 1
    30   21   39 1
    31   22   23 ar
    32   22   31 ar
    33   23   24 ar
    34   23   40 1
    35   24   25 ar
    36   25   26 ar
    37   25   31 ar
    38   26   27 1
    39   26   28 ar
    40   27   41 1
    41   27   42 1
    42   28   29 ar
    43   28   44 1
    44   29   30 ar
    45   29   43 1
    46   30   31 ar
@<TRIPOS>SUBSTRUCTURE
     1 ATP         1 GROUP 0 A     ****
@<TRIPOS>MOLECULE
[[[5-(6-amino-1,8-dihydropurine-6,8-diylium-7-id-9-yl)-3,4-dihydroxy-tetrahydrofuran-2-yl]methoxy-oxido-phosphoryl]oxy-oxido-phosphoryl] phosphate
   44    46     1     0     0
SMALL
USER_CHARGES

@<TRIPOS>ATOM
      1 PG          7.2049   -4.2626   -2.5032 P.3       1 ATP        -1.1921
      2 O1G         6.2952   -4.1350   -1.2858 O.co2     1 ATP         0.3195
      3 O2G         7.0902   -5.5944   -3.2373 O.co2     1 ATP         0.3195
      4 O3G         8.6387   -3.8008   -2.2646 O.co2     1 ATP         0.3195
      5 PB          6.4400   -1.5393   -3.4265 P.3       1 ATP        -1.1062
      6 O1B         7.4125   -1.0410   -2.3808 O.co2     1 ATP         0.3195
      7 O2B         6.3953   -0.9279   -4.8090 O.co2     1 ATP         0.3195
      8 O3B         6.6082   -3.1578   -3.5724 O.3       1 ATP         0.4672
      9 PA          3.5298   -2.0738   -3.4112 P.3       1 ATP        -1.1062
     10 O1A         3.6081   -3.5837   -3.4735 O.co2     1 ATP         0.3195
     11 O2A         3.1811   -1.2660   -4.6424 O.co2     1 ATP         0.3195
     12 O3A         4.9348   -1.5118   -2.7948 O.3       1 ATP         0.4672
     13 O5'         2.5245   -1.6648   -2.1878 O.3       1 ATP         0.1618
     14 C5'         2.2816   -0.2918   -1.9206 C.3       1 ATP         0.1504
     15 C4'         2.7248    0.0226   -0.4980 C.3       1 ATP         0.1111
     16 O4'         2.4697    1.4219   -0.2462 O.3       1 ATP        -0.1436
     17 C3'         1.9404   -0.7419    0.5596 C.3       1 ATP         0.1111
     18 O3'         2.7418   -0.8086    1.7389 O.3       1 ATP        -0.2728
     19 C2'         0.7477    0.1630    0.7858 C.3       1 ATP         0.1111
     20 O2'         0.1373   -0.0577    2.0407 O.3       1 ATP        -0.2728
     21 C1'         1.3733    1.5427    0.6747 C.3       1 ATP         0.2693
     22 N9          0.4520    2.5240    0.1767 N.pl3     1 ATP        -0.3222
     23 C8         -0.3054    2.4845   -1.1576 C.ar      1 ATP         0.1640
     24 N7         -1.0755    3.5806   -1.2691 N.2       1 ATP        -0.1640
     25 C5         -0.8043    4.2306   -0.0942 C.ar      1 ATP         0.0820
     26 C6         -1.4324    5.5335    0.2646 C.ar      1 ATP         0.1640
     27 N6         -2.2885    6.1054   -0.5675 N.pl3     1 ATP        -0.4916
     28 N1         -1.0537    6.0229    1.4478 N.pl3     1 ATP        -0.4390
     29 C2         -0.1096    5.3242    2.2908 C.ar      1 ATP         0.5691
     30 N3          0.4468    4.1904    1.9960 N.ar      1 ATP        -0.4283
     31 C4          0.0631    3.6855    0.7877 C.ar      1 ATP         0.2226
     32 H5'1        2.8432    0.3119   -2.6398 H         1 ATP        -0.0393
     33 H5'2        1.2128   -0.0927   -2.0428 H         1 ATP        -0.0393
     34 H4'         3.8040   -0.1399   -0.4044 H         1 ATP        -0.0393
     35 H3'         1.6768   -1.7637    0.2732 H         1 ATP        -0.0393
     36 HO3'        3.5553   -1.2733    1.4913 H         1 ATP         0.2010
     37 H2'         0.0002   -0.0084   -0.0014 H         1 ATP        -0.0393
     38 HO2'       -0.1554   -0.9852    2.0577 H         1 ATP         0.2010
     39 H1'         1.7718    1.9211    1.6015 H         1 ATP        -0.0393
     40 H8         -0.2991    1.7413   -1.9611 H         1 ATP         0.0000
     41 HN61       -2.5167    5.6603   -1.4447 H         1 ATP         0.2048
     42 HN62       -2.7159    6.9882   -0.3270 H         1 ATP         0.2048
     43 H2          0.1059    5.8491    3.2340 H         1 ATP        -0.1292
     44 H44        -1.4532    6.9099    1.7401 H         1 ATP         0.2048
@<TRIPOS>BOND
     1    1    2 2
     2    1    3 1
     3    1    4 1
     4    1    8 1
     5    5    6 2
     6    5    7 1
     7    5    8 1
     8    5   12 1
     9    9   10 2
    10    9   11 1
    11    9   12 1
    12    9   13 1
    13   13   14 1
    14   14   15 1
    15   14   32 1
    16   14   33 1
    17   15   16 1
    18   15   17 1
    19   15   34 1
    20   16   21 1
    21   17   18 1
    22   17   19 1
    23   17   35 1
    24   18   36 1
    25   19   20 1
    26   19   21 1
    27   19   37 1
    28   20   38 1
    29   21   22 1
    30   21   39 1
    31   22   23 ar
    32   22   31 ar
    33   23   24 ar
    34   23   40 1
    35   24   25 ar
    36   25   26 ar
    37   25   31 ar
    38   26   27 1
    39   26   28 ar
    40   27   41 1
    41   27   42 1
    42   28   29 ar
    43   28   44 1
    44   29   30 ar
    45   29   43 1
    46   30   31 ar
@<TRIPOS>SUBSTRUCTURE
     1 ATP         1 GROUP 0 A     ****
@<TRIPOS>MOLECULE
[[[5-(6-amino-1,8-dihydropurine-6,8-diylium-7-id-9-yl)-3,4-dihydroxy-tetrahydrofuran-2-yl]methoxy-oxido-phosphoryl]oxy-oxido-phosphoryl] phosphate
   44    46     1     0     0
SMALL
USER_CHARGES

@<TRIPOS>ATOM
      1 PG         -4.4709   -4.0620    5.3620 P.3       1 ATP        -1.1921
      2 O1G        -3.6904   -3.4743    4.1910 O.co2     1 ATP         0.3195
      3 O2G        -5.9596   -3.7313    5.3550 O.co2     1 ATP         0.3195
      4 O3G        -3.7960   -3.8817    6.7177 O.co2     1 ATP         0.3195
      5 PB         -3.1320   -6.6948    5.0019 P.3       1 ATP        -1.1062
      6 O1B        -2.2631   -6.5057    6.2253 O.co2     1 ATP         0.3195
      7 O2B        -3.6193   -8.0666    4.5918 O.co2     1 ATP         0.3195
      8 O3B        -4.4163   -5.6907    5.1086 O.3       1 ATP         0.4672
      9 PA         -1.0041   -6.4128    2.9654 P.3       1 ATP        -1.1062
     10 O1A        -1.2162   -7.7427    2.2755 O.co2     1 ATP         0.3195
     11 O2A         0.1509   -6.2137    3.9227 O.co2     1 ATP         0.3195
     12 O3A        -2.3916   -6.0003    3.7233 O.3       1 ATP         0.4672
     13 O5'        -0.9724   -5.2440    1.8220 O.3       1 ATP         0.1618
     14 C5'        -0.7840   -3.8935    2.2172 C.3       1 ATP         0.1504
     15 C4'        -0.0724   -3.1466    1.1027 C.3       1 ATP         0.1111
     16 O4'        -0.8674   -3.1929   -0.0945 O.3       1 ATP        -0.1436
     17 C3'         0.1338   -1.6715    1.4027 C.3       1 ATP         0.1111
     18 O3'         1.2893   -1.4445    2.1808 O.3       1 ATP        -0.2728
     19 C2'         0.2158   -1.0724    0.0128 C.3       1 ATP         0.1111
     20 O2'         1.5141   -1.2448   -0.5513 O.3       1 ATP        -0.2728
     21 C1'        -0.7897   -1.9176   -0.7583 C.3       1 ATP         0.2693
     22 N9         -2.1040   -1.3333   -0.7704 N.pl3     1 ATP        -0.3222
     23 C8         -3.2124   -1.5345    0.2719 C.ar      1 ATP         0.1640
     24 N7         -4.2964   -0.8234   -0.0828 N.2       1 ATP        -0.1640
     25 C5         -3.8754   -0.2386   -1.2478 C.ar      1 ATP         0.0820
     26 C6         -4.7432    0.6719   -2.0470 C.ar      1 ATP         0.1640
     27 N6         -5.9725    0.9415   -1.6366 N.pl3     1 ATP        -0.4916
     28 N1         -4.1703    1.1517   -3.1536 N.pl3     1 ATP        -0.4390
     29 C2         -2.8174    0.7994   -3.5215 C.ar      1 ATP         0.5691
     30 N3         -2.0475    0.0097   -2.8393 N.ar      1 ATP        -0.4283
     31 C4         -2.6278   -0.4836   -1.7071 C.ar      1 ATP         0.2226
     32 H5'1       -1.7618   -3.4448    2.4164 H         1 ATP        -0.0393
     33 H5'2       -0.1874   -3.8744    3.1341 H         1 ATP        -0.0393
     34 H4'         0.8871   -3.6466    0.8809 H         1 ATP        -0.0393
     35 H3'        -0.7370   -1.2334    1.9869 H         1 ATP        -0.0393
     36 HO3'        1.3407   -0.4871    2.3218 H         1 ATP         0.2010
     37 H2'        -0.0343   -0.0280    0.0196 H         1 ATP        -0.0393
     38 HO2'        2.1443   -0.7955    0.0378 H         1 ATP         0.2010
     39 H1'        -0.5175   -2.1046   -1.7826 H         1 ATP        -0.0393
     40 H8         -3.2310   -2.1319    1.1889 H         1 ATP         0.0000
     41 HN61       -6.3231    0.5316   -0.7829 H         1 ATP         0.2048
     42 HN62       -6.5628    1.5584   -2.1760 H         1 ATP         0.2048
     43 H2         -2.4822    1.2710   -4.4579 H         1 ATP        -0.1292
     44 H44        -4.7200    1.7780   -3.7346 H         1 ATP         0.2048
@<TRIPOS>BOND
     1    1    2 2
     2    1    3 1
     3    1    4 1
     4    1    8 1
     5    5    6 2
     6    5    7 1
     7    5    8 1
     8    5   12 1
     9    9   10 2
    10    9   11 1
    11    9   12 1
    12    9   13 1
    13   13   14 1
    14   14   15 1
    15   14   32 1
    16   14   33 1
    17   15   16 1
    18   15   17 1
    19   15   34 1
    20   16   21 1
    21   17   18 1
    22   17   19 1
    23   17   35 1
    24   18   36 1
    25   19   20 1
    26   19   21 1
    27   19   37 1
    28   20   38 1
    29   21   22 1
    30   21   39 1
    31   22   23 ar
    32   22   31 ar
    33   23   24 ar
    34   23   40 1
    35   24   25 ar
    36   25   26 ar
    37   25   31 ar
    38   26   27 1
    39   26   28 ar
    40   27   41 1
    41   27   42 1
    42   28   29 ar
    43   28   44 1
    44   29   30 ar
    45   29   43 1
    46   30   31 ar
@<TRIPOS>SUBSTRUCTURE
     1 ATP         1 GROUP 0 A     ****
@<TRIPOS>MOLECULE
[[[5-(6-amino-1,8-dihydropurine-6,8-diylium-7-id-9-yl)-3,4-dihydroxy-tetrahydrofuran-2-yl]methoxy-oxido-phosphoryl]oxy-oxido-phosphoryl] phosphate
   44    46     1     0     0
SMALL
USER_CHARGES

@<TRIPOS>ATOM
      1 PG          4.8261   -0.6960   -7.7264 P.3       1 ATP        -1.1921
      2 O1G         3.5224    0.0085   -7.3660 O.co2     1 ATP         0.3195
      3 O2G         5.9383    0.2381   -8.1913 O.co2     1 ATP         0.3195
      4 O3G         4.6478   -1.9375   -8.5942 O.co2     1 ATP         0.3195
      5 PB          4.6755   -2.3517   -5.2586 P.3       1 ATP        -1.1062
      6 O1B         3.6684   -3.1836   -6.0210 O.co2     1 ATP         0.3195
      7 O2B         5.7556   -3.0012   -4.4226 O.co2     1 ATP         0.3195
      8 O3B         5.3735   -1.2948   -6.2905 O.3       1 ATP         0.4672
      9 PA          4.4374   -0.0458   -3.4198 P.3       1 ATP        -1.1062
     10 O1A         5.0088    1.0040   -4.3477 O.co2     1 ATP         0.3195
     11 O2A         5.2690   -0.6154   -2.2910 O.co2     1 ATP         0.3195
     12 O3A         3.8693   -1.2796   -4.3279 O.3       1 ATP         0.4672
     13 O5'         3.0213    0.5153   -2.8245 O.3       1 ATP         0.1618
     14 C5'         2.2816   -0.2918   -1.9206 C.3       1 ATP         0.1504
     15 C4'         2.7248    0.0226   -0.4980 C.3       1 ATP         0.1111
     16 O4'         2.4697    1.4219   -0.2462 O.3       1 ATP        -0.1436
     17 C3'         1.9404   -0.7419    0.5596 C.3       1 ATP         0.1111
     18 O3'         2.7418   -0.8086    1.7389 O.3       1 ATP        -0.2728
     19 C2'         0.7477    0.1630    0.7858 C.3       1 ATP         0.1111
     20 O2'         0.1373   -0.0577    2.0407 O.3       1 ATP        -0.2728
     21 C1'         1.3733    1.5427    0.6747 C.3       1 ATP         0.2693
     22 N9          0.4520    2.5240    0.1767 N.pl3     1 ATP        -0.3222
     23 C8         -0.3054    2.4845   -1.1576 C.ar      1 ATP         0.1640
     24 N7         -1.0755    3.5806   -1.2691 N.2       1 ATP        -0.1640
     25 C5         -0.8043    4.2306   -0.0942 C.ar      1 ATP         0.0820
     26 C6         -1.4324    5.5335    0.2646 C.ar      1 ATP         0.1640
     27 N6         -2.2885    6.1054   -0.5675 N.pl3     1 ATP        -0.4916
     28 N1         -1.0537    6.0229    1.4478 N.pl3     1 ATP        -0.4390
     29 C2         -0.1096    5.3242    2.2908 C.ar      1 ATP         0.5691
     30 N3          0.4468    4.1904    1.9960 N.ar      1 ATP        -0.4283
     31 C4          0.0631    3.6855    0.7877 C.ar      1 ATP         0.2226
     32 H5'1        1.2163   -0.0770   -2.0471 H         1 ATP        -0.0393
     33 H5'2        2.4655   -1.3443   -2.1563 H         1 ATP        -0.0393
     34 H4'         3.8040   -0.1399   -0.4044 H         1 ATP        -0.0393
     35 H3'         1.6768   -1.7637    0.2732 H         1 ATP        -0.0393
     36 HO3'        2.2231   -1.2979    2.3952 H         1 ATP         0.2010
     37 H2'         0.0002   -0.0084   -0.0014 H         1 ATP        -0.0393
     38 HO2'       -0.6132    0.5577    2.1063 H         1 ATP         0.2010
     39 H1'         1.7718    1.9211    1.6015 H         1 ATP        -0.0393
     40 H8         -0.2991    1.7413   -1.9611 H         1 ATP         0.0000
     41 HN61       -2.5167    5.6603   -1.4447 H         1 ATP         0.2048
     42 HN62       -2.7159    6.9882   -0.3270 H         1 ATP         0.2048
     43 H2          0.1059    5.8491    3.2340 H         1 ATP        -0.1292
     44 H44        -1.4532    6.9099    1.7401 H         1 ATP         0.2048
@<TRIPOS>BOND
     1    1    2 2
     2    1    3 1
     3    1    4 1
     4    1    8 1
     5    5    6 2
     6    5    7 1
     7    5    8 1
     8    5   12 1
     9    9   10 2
    10    9   11 1
    11    9   12 1
    12    9   13 1
    13   13   14 1
    14   14   15 1
    15   14   32 1
    16   14   33 1
    17   15   16 1
    18   15   17 1
    19   15   34 1
    20   16   21 1
    21   17   18 1
    22   17   19 1
    23   17   35 1
    24   18   36 1
    25   19   20 1
    26   19   21 1
    27   19   37 1
    28   20   38 1
    29   21   22 1
    30   21   39 1
    31   22   23 ar
    32   22   31 ar
    33   23   24 ar
    34   23   40 1
    35   24   25 ar
    36   25   26 ar
    37   25   31 ar
    38   26   27 1
    39   26   28 ar
    40   27   41 1
    41   27   42 1
    42   28   29 ar
    43   28   44 1
    44   29   30 ar
    45   29   43 1
    46   30   31 ar
@<TRIPOS>SUBSTRUCTURE
     1 ATP         1 GROUP 0 A     ****
@<TRIPOS>MOLECULE
[[[5-(6-amino-1,8-dihydropurine-6,8-diylium-7-id-9-yl)-3,4-dihydroxy-tetrahydrofuran-2-yl]methoxy-oxido-phosphoryl]oxy-oxido-phosphoryl] phosphate
   44    46     1     0     0
SMALL
USER_CHARGES

@<TRIPOS>ATOM
      1 PG          0.0549   -2.2842   -7.4938 P.3       1 ATP        -1.1921
      2 O1G        -0.4742   -3.6759   -7.1635 O.co2     1 ATP         0.3195
      3 O2G        -1.0049   -1.1878   -7.4758 O.co2     1 ATP         0.3195
      4 O3G         0.9831   -2.2379   -8.7030 O.co2     1 ATP         0.3195
      5 PB          2.3780   -2.6781   -5.6767 P.3       1 ATP        -1.1062
      6 O1B         1.9749   -4.0260   -5.1214 O.co2     1 ATP         0.3195
      7 O2B         3.4709   -2.5537   -6.7147 O.co2     1 ATP         0.3195
      8 O3B         1.0420   -1.9145   -6.2254 O.3       1 ATP         0.4672
      9 PA          3.0683   -0.0853   -4.4294 P.3       1 ATP        -1.1062
     10 O1A         1.8221    0.6677   -4.8414 O.co2     1 ATP         0.3195
     11 O2A         4.3786    0.1323   -5.1545 O.co2     1 ATP         0.3195
     12 O3A         2.7266   -1.6831   -4.4301 O.3       1 ATP         0.4672
     13 O5'         3.2903    0.1346   -2.8241 O.3       1 ATP         0.1618
     14 C5'         2.2816   -0.2918   -1.9206 C.3       1 ATP         0.1504
     15 C4'         2.7248    0.0226   -0.4980 C.3       1 ATP         0.1111
     16 O4'         2.4697    1.4219   -0.2462 O.3       1 ATP        -0.1436
     17 C3'         1.9404   -0.7419    0.5596 C.3       1 ATP         0.1111
     18 O3'         2.7418   -0.8086    1.7389 O.3       1 ATP        -0.2728
     19 C2'         0.7477    0.1630    0.7858 C.3       1 ATP         0.1111
     20 O2'         0.1373   -0.0577    2.0407 O.3       1 ATP        -0.2728
     21 C1'         1.3733    1.5427    0.6747 C.3       1 ATP         0.2693
     22 N9          0.4520    2.5240    0.1767 N.pl3     1 ATP        -0.3222
     23 C8         -0.7463    2.2774   -0.7501 C.ar      1 ATP         0.1640
     24 N7         -1.3714    3.4419   -0.9948 N.2       1 ATP        -0.1640
     25 C5         -0.6104    4.3223   -0.2723 C.ar      1 ATP         0.0820
     26 C6         -0.9062    5.7820   -0.2194 C.ar      1 ATP         0.1640
     27 N6         -1.9385    6.2713   -0.8881 N.pl3     1 ATP        -0.4916
     28 N1         -0.0613    6.4906    0.5336 N.pl3     1 ATP        -0.4390
     29 C2          1.0416    5.8662    1.2291 C.ar      1 ATP         0.5691
     30 N3          1.3146    4.5989    1.1954 N.ar      1 ATP        -0.4283
     31 C4          0.4541    3.8697    0.4273 C.ar      1 ATP         0.2226
     32 H5'1        1.3514    0.2330   -2.1577 H         1 ATP        -0.0393
     33 H5'2        2.1280   -1.3678   -2.0460 H         1 ATP        -0.0393
     34 H4'         3.8040   -0.1399   -0.4044 H         1 ATP        -0.0393
     35 H3'         1.6768   -1.7637    0.2732 H         1 ATP        -0.0393
     36 HO3'        3.5553   -1.2733    1.4913 H         1 ATP         0.2010
     37 H2'         0.0002   -0.0084   -0.0014 H         1 ATP        -0.0393
     38 HO2'       -0.1554   -0.9852    2.0577 H         1 ATP         0.2010
     39 H1'         1.7718    1.9211    1.6015 H         1 ATP        -0.0393
     40 H8         -1.1244    1.3534   -1.1987 H         1 ATP         0.0000
     41 HN61       -2.5259    5.6573   -1.4336 H         1 ATP         0.2048
     42 HN62       -2.1416    7.2600   -0.8539 H         1 ATP         0.2048
     43 H2          1.6509    6.5764    1.8088 H         1 ATP        -0.1292
     44 H44        -0.2190    7.4917    0.6033 H         1 ATP         0.2048
@<TRIPOS>BOND
     1    1    2 2
     2    1    3 1
     3    1    4 1
     4    1    8 1
     5    5    6 2
     6    5    7 1
     7    5    8 1
     8    5   12 1
     9    9   10 2
    10    9   11 1
    11    9   12 1
    12    9   13 1
    13   13   14 1
    14   14   15 1
    15   14   32 1
    16   14   33 1
    17   15   16 1
    18   15   17 1
    19   15   34 1
    20   16   21 1
    21   17   18 1
    22   17   19 1
    23   17   35 1
    24   18   36 1
    25   19   20 1
    26   19   21 1
    27   19   37 1
    28   20   38 1
    29   21   22 1
    30   21   39 1
    31   22   23 ar
    32   22   31 ar
    33   23   24 ar
    34   23   40 1
    35   24   25 ar
    36   25   26 ar
    37   25   31 ar
    38   26   27 1
    39   26   28 ar
    40   27   41 1
    41   27   42 1
    42   28   29 ar
    43   28   44 1
    44   29   30 ar
    45   29   43 1
    46   30   31 ar
@<TRIPOS>SUBSTRUCTURE
     1 ATP         1 GROUP 0 A     ****
@<TRIPOS>MOLECULE
[[[5-(6-amino-1,8-dihydropurine-6,8-diylium-7-id-9-yl)-3,4-dihydroxy-tetrahydrofuran-2-yl]methoxy-oxido-phosphoryl]oxy-oxido-phosphoryl] phosphate
   44    46     1     0     0
SMALL
USER_CHARGES

@<TRIPOS>ATOM
      1 PG         -0.2896    4.5544   -6.1180 P.3       1 ATP        -1.1921
      2 O1G        -1.4169    5.1738   -5.2986 O.co2     1 ATP         0.3195
      3 O2G         0.8902    5.4871   -6.3706 O.co2     1 ATP         0.3195
      4 O3G        -0.7590    3.7905   -7.3517 O.co2     1 ATP         0.3195
      5 PB         -0.3998    2.0674   -4.4880 P.3       1 ATP        -1.1062
      6 O1B        -1.4317    2.5290   -3.4832 O.co2     1 ATP         0.3195
      7 O2B        -0.7640    1.1111   -5.6016 O.co2     1 ATP         0.3195
      8 O3B         0.3253    3.3794   -5.1377 O.3       1 ATP         0.4672
      9 PA          2.3343    0.9640   -4.2391 P.3       1 ATP        -1.1062
     10 O1A         3.0807    2.1707   -4.7648 O.co2     1 ATP         0.3195
     11 O2A         2.1273   -0.2567   -5.1092 O.co2     1 ATP         0.3195
     12 O3A         0.8825    1.4621   -3.6789 O.3       1 ATP         0.4672
     13 O5'         3.0213    0.5153   -2.8245 O.3       1 ATP         0.1618
     14 C5'         2.2816   -0.2918   -1.9206 C.3       1 ATP         0.1504
     15 C4'         2.7248    0.0226   -0.4980 C.3       1 ATP         0.1111
     16 O4'         2.4697    1.4219   -0.2462 O.3       1 ATP        -0.1436
     17 C3'         1.9404   -0.7419    0.5596 C.3       1 ATP         0.1111
     18 O3'         2.7418   -0.8086    1.7389 O.3       1 ATP        -0.2728
     19 C2'         0.7477    0.1630    0.7858 C.3       1 ATP         0.1111
     20 O2'         0.1373   -0.0577    2.0407 O.3       1 ATP        -0.2728
     21 C1'         1.3733    1.5427    0.6747 C.3       1 ATP         0.2693
     22 N9          0.4520    2.5240    0.1767 N.pl3     1 ATP        -0.3222
     23 C8          0.5793    3.3338   -1.1209 C.ar      1 ATP         0.1640
     24 N7         -0.4807    4.1508   -1.2458 N.2       1 ATP        -0.1640
     25 C5         -1.1921    3.8572   -0.1126 C.ar      1 ATP         0.0820
     26 C6         -2.4855    4.5203    0.2163 C.ar      1 ATP         0.1640
     27 N6         -2.9873    5.4319   -0.6020 N.pl3     1 ATP        -0.4916
     28 N1         -3.0414    4.1119    1.3596 N.pl3     1 ATP        -0.4390
     29 C2         -2.4169    3.1071    2.1904 C.ar      1 ATP         0.5691
     30 N3         -1.2928    2.5191    1.9210 N.ar      1 ATP        -0.4283
     31 C4         -0.7202    2.9326    0.7534 C.ar      1 ATP         0.2226
     32 H5'1        1.2163   -0.0770   -2.0471 H         1 ATP        -0.0393
     33 H5'2        2.4655   -1.3443   -2.1563 H         1 ATP        -0.0393
     34 H4'         3.8040   -0.1399   -0.4044 H         1 ATP        -0.0393
     35 H3'         1.6768   -1.7637    0.2732 H         1 ATP        -0.0393
     36 HO3'        3.5553   -1.2733    1.4913 H         1 ATP         0.2010
     37 H2'         0.0002   -0.0084   -0.0014 H         1 ATP        -0.0393
     38 HO2'       -0.1554   -0.9852    2.0577 H         1 ATP         0.2010
     39 H1'         1.7718    1.9211    1.6015 H         1 ATP        -0.0393
     40 H8          1.3565    3.3309   -1.8916 H         1 ATP         0.0000
     41 HN61       -2.4952    5.6785   -1.4487 H         1 ATP         0.2048
     42 HN62       -3.8637    5.8828   -0.3819 H         1 ATP         0.2048
     43 H2         -2.9911    2.8734    3.1000 H         1 ATP        -0.1292
     44 H44        -3.9253    4.5332    1.6302 H         1 ATP         0.2048
@<TRIPOS>BOND
     1    1    2 2
     2    1    3 1
     3    1    4 1
     4    1    8 1
     5    5    6 2
     6    5    7 1
     7    5    8 1
     8    5   12 1
     9    9   10 2
    10    9   11 1
    11    9   12 1
    12    9   13 1
    13   13   14 1
    14   14   15 1
    15   14   32 1
    16   14   33 1
    17   15   16 1
    18   15   17 1
    19   15   34 1
    20   16   21 1
    21   17   18 1
    22   17   19 1
    23   17   35 1
    24   18   36 1
    25   19   20 1
    26   19   21 1
    27   19   37 1
    28   20   38 1
    29   21   22 1
    30   21   39 1
    31   22   23 ar
    32   22   31 ar
    33   23   24 ar
    34   23   40 1
    35   24   25 ar
    36   25   26 ar
    37   25   31 ar
    38   26   27 1
    39   26   28 ar
    40   27   41 1
    41   27   42 1
    42   28   29 ar
    43   28   44 1
    44   29   30 ar
    45   29   43 1
    46   30   31 ar
@<TRIPOS>SUBSTRUCTURE
     1 ATP         1 GROUP 0 A     ****
@<TRIPOS>MOLECULE
[[[5-(6-amino-1,8-dihydropurine-6,8-diylium-7-id-9-yl)-3,4-dihydroxy-tetrahydrofuran-2-yl]methoxy-oxido-phosphoryl]oxy-oxido-phosphoryl] phosphate
   44    46     1     0     0
SMALL
USER_CHARGES

@<TRIPOS>ATOM
      1 PG         -4.5205   -1.8659    4.8135 P.3       1 ATP        -1.1921
      2 O1G        -4.4948   -3.3471    4.4513 O.co2     1 ATP         0.3195
      3 O2G        -5.7075   -1.4497    5.6758 O.co2     1 ATP         0.3195
      4 O3G        -4.2386   -0.9300    3.6428 O.co2     1 ATP         0.3195
      5 PB         -1.6280   -1.9312    5.5086 P.3       1 ATP        -1.1062
      6 O1B        -1.2322   -1.1834    4.2549 O.co2     1 ATP         0.3195
      7 O2B        -0.8603   -1.7568    6.7999 O.co2     1 ATP         0.3195
      8 O3B        -3.2138   -1.6672    5.7998 O.3       1 ATP         0.4672
      9 PA         -0.5242   -4.5704    4.7529 P.3       1 ATP        -1.1062
     10 O1A        -1.1630   -5.8854    4.3626 O.co2     1 ATP         0.3195
     11 O2A         0.5556   -4.5193    5.8118 O.co2     1 ATP         0.3195
     12 O3A        -1.7110   -3.5244    5.1619 O.3       1 ATP         0.4672
     13 O5'         0.0118   -3.8395    3.3916 O.3       1 ATP         0.1618
     14 C5'        -0.7840   -3.8935    2.2172 C.3       1 ATP         0.1504
     15 C4'        -0.0724   -3.1466    1.1027 C.3       1 ATP         0.1111
     16 O4'        -0.8674   -3.1929   -0.0945 O.3       1 ATP        -0.1436
     17 C3'         0.1338   -1.6715    1.4027 C.3       1 ATP         0.1111
     18 O3'         1.2893   -1.4445    2.1808 O.3       1 ATP        -0.2728
     19 C2'         0.2158   -1.0724    0.0128 C.3       1 ATP         0.1111
     20 O2'         1.5141   -1.2448   -0.5513 O.3       1 ATP        -0.2728
     21 C1'        -0.7897   -1.9176   -0.7583 C.3       1 ATP         0.2693
     22 N9         -2.1040   -1.3333   -0.7704 N.pl3     1 ATP        -0.3222
     23 C8         -3.2124   -1.5345    0.2719 C.ar      1 ATP         0.1640
     24 N7         -4.2964   -0.8234   -0.0828 N.2       1 ATP        -0.1640
     25 C5         -3.8754   -0.2386   -1.2478 C.ar      1 ATP         0.0820
     26 C6         -4.7432    0.6719   -2.0470 C.ar      1 ATP         0.1640
     27 N6         -5.9725    0.9415   -1.6366 N.pl3     1 ATP        -0.4916
     28 N1         -4.1703    1.1517   -3.1536 N.pl3     1 ATP        -0.4390
     29 C2         -2.8174    0.7994   -3.5215 C.ar      1 ATP         0.5691
     30 N3         -2.0475    0.0097   -2.8393 N.ar      1 ATP        -0.4283
     31 C4         -2.6278   -0.4836   -1.7071 C.ar      1 ATP         0.2226
     32 H5'1       -0.9348   -4.9415    1.9415 H         1 ATP        -0.0393
     33 H5'2       -1.7548   -3.4350    2.4278 H         1 ATP        -0.0393
     34 H4'         0.8871   -3.6466    0.8809 H         1 ATP        -0.0393
     35 H3'        -0.7370   -1.2334    1.9869 H         1 ATP        -0.0393
     36 HO3'        1.1625   -1.9325    3.0084 H         1 ATP         0.2010
     37 H2'        -0.0343   -0.0280    0.0196 H         1 ATP        -0.0393
     38 HO2'        2.1443   -0.7955    0.0378 H         1 ATP         0.2010
     39 H1'        -0.5175   -2.1046   -1.7826 H         1 ATP        -0.0393
     40 H8         -3.2310   -2.1319    1.1889 H         1 ATP         0.0000
     41 HN61       -6.3231    0.5316   -0.7829 H         1 ATP         0.2048
     42 HN62       -6.5628    1.5584   -2.1760 H         1 ATP         0.2048
     43 H2         -2.4822    1.2710   -4.4579 H         1 ATP        -0.1292
     44 H44        -4.7200    1.7780   -3.7346 H         1 ATP         0.2048
@<TRIPOS>BOND
     1    1    2 2
     2    1    3 1
     3    1    4 1
     4    1    8 1
     5    5    6 2
     6    5    7 1
     7    5    8 1
     8    5   12 1
     9    9   10 2
    10    9   11 1
    11    9   12 1
    12    9   13 1
    13   13   14 1
    14   14   15 1
    15   14   32 1
    16   14   33 1
    17   15   16 1
    18   15   17 1
    19   15   34 1
    20   16   21 1
    21   17   18 1
    22   17   19 1
    23   17   35 1
    24   18   36 1
    25   19   20 1
    26   19   21 1
    27   19   37 1
    28   20   38 1
    29   21   22 1
    30   21   39 1
    31   22   23 ar
    32   22   31 ar
    33   23   24 ar
    34   23   40 1
    35   24   25 ar
    36   25   26 ar
    37   25   31 ar
    38   26   27 1
    39   26   28 ar
    40   27   41 1
    41   27   42 1
    42   28   29 ar
    43   28   44 1
    44   29   30 ar
    45   29   43 1
    46   30   31 ar
@<TRIPOS>SUBSTRUCTURE
     1 ATP         1 GROUP 0 A     ****
@<TRIPOS>MOLECULE
[[[5-(6-amino-1,8-dihydropurine-6,8-diylium-7-id-9-yl)-3,4-dihydroxy-tetrahydrofuran-2-yl]methoxy-oxido-phosphoryl]oxy-oxido-phosphoryl] phosphate
   44    46     1     0     0
SMALL
USER_CHARGES

@<TRIPOS>ATOM
      1 PG          7.3330    0.6706   -2.6093 P.3       1 ATP        -1.1921
      2 O1G         8.4735    0.8304   -1.6096 O.co2     1 ATP         0.3195
      3 O2G         7.7168    0.9703   -4.0545 O.co2     1 ATP         0.3195
      4 O3G         6.0186    1.3047   -2.1663 O.co2     1 ATP         0.3195
      5 PB          6.5441   -1.9199   -1.3762 P.3       1 ATP        -1.1062
      6 O1B         6.9235   -3.3447   -1.7132 O.co2     1 ATP         0.3195
      7 O2B         6.9603   -1.2873   -0.0670 O.co2     1 ATP         0.3195
      8 O3B         7.0117   -0.9469   -2.6024 O.3       1 ATP         0.4672
      9 PA          3.9665   -2.1124   -2.8163 P.3       1 ATP        -1.1062
     10 O1A         3.9564   -3.6144   -2.9990 O.co2     1 ATP         0.3195
     11 O2A         4.3219   -1.1957   -3.9667 O.co2     1 ATP         0.3195
     12 O3A         4.9284   -1.7562   -1.5445 O.3       1 ATP         0.4672
     13 O5'         2.5245   -1.6648   -2.1878 O.3       1 ATP         0.1618
     14 C5'         2.2816   -0.2918   -1.9206 C.3       1 ATP         0.1504
     15 C4'         2.7248    0.0226   -0.4980 C.3       1 ATP         0.1111
     16 O4'         2.4697    1.4219   -0.2462 O.3       1 ATP        -0.1436
     17 C3'         1.9404   -0.7419    0.5596 C.3       1 ATP         0.1111
     18 O3'         2.7418   -0.8086    1.7389 O.3       1 ATP        -0.2728
     19 C2'         0.7477    0.1630    0.7858 C.3       1 ATP         0.1111
     20 O2'         0.1373   -0.0577    2.0407 O.3       1 ATP        -0.2728
     21 C1'         1.3733    1.5427    0.6747 C.3       1 ATP         0.2693
     22 N9          0.4520    2.5240    0.1767 N.pl3     1 ATP        -0.3222
     23 C8          0.1798    2.8712   -1.2933 C.ar      1 ATP         0.1640
     24 N7         -0.7494    3.8400   -1.3610 N.2       1 ATP        -0.1640
     25 C5         -1.0173    4.0603   -0.0358 C.ar      1 ATP         0.0820
     26 C6         -2.0105    5.0717    0.4241 C.ar      1 ATP         0.1640
     27 N6         -2.6723    5.7982   -0.4628 N.pl3     1 ATP        -0.4916
     28 N1         -2.1445    5.1522    1.7502 N.pl3     1 ATP        -0.4390
     29 C2         -1.3755    4.3143    2.6427 C.ar      1 ATP         0.5691
     30 N3         -0.5075    3.4292    2.2616 N.ar      1 ATP        -0.4283
     31 C4         -0.3667    3.3425    0.9070 C.ar      1 ATP         0.2226
     32 H5'1        2.8432    0.3119   -2.6398 H         1 ATP        -0.0393
     33 H5'2        1.2128   -0.0927   -2.0428 H         1 ATP        -0.0393
     34 H4'         3.8040   -0.1399   -0.4044 H         1 ATP        -0.0393
     35 H3'         1.6768   -1.7637    0.2732 H         1 ATP        -0.0393
     36 HO3'        3.5553   -1.2733    1.4913 H         1 ATP         0.2010
     37 H2'         0.0002   -0.0084   -0.0014 H         1 ATP        -0.0393
     38 HO2'       -0.6132    0.5577    2.1063 H         1 ATP         0.2010
     39 H1'         1.7718    1.9211    1.6015 H         1 ATP        -0.0393
     40 H8          0.6089    2.4651   -2.2147 H         1 ATP         0.0000
     41 HN61       -2.5055    5.6680   -1.4503 H         1 ATP         0.2048
     42 HN62       -3.3462    6.4841   -0.1542 H         1 ATP         0.2048
     43 H2         -1.5932    4.4937    3.7066 H         1 ATP        -0.1292
     44 H44        -2.8098    5.8270    2.1160 H         1 ATP         0.2048
@<TRIPOS>BOND
     1    1    2 2
     2    1    3 1
     3    1    4 1
     4    1    8 1
     5    5    6 2
     6    5    7 1
     7    5    8 1
     8    5   12 1
     9    9   10 2
    10    9   11 1
    11    9   12 1
    12    9   13 1
    13   13   14 1
    14   14   15 1
    15   14   32 1
    16   14   33 1
    17   15   16 1
    18   15   17 1
    19   15   34 1
    20   16   21 1
    21   17   18 1
    22   17   19 1
    23   17   35 1
    24   18   36 1
    25   19   20 1
    26   19   21 1
    27   19   37 1
    28   20   38 1
    29   21   22 1
    30   21   39 1
    31   22   23 ar
    32   22   31 ar
    33   23   24 ar
    34   23   40 1
    35   24   25 ar
    36   25   26 ar
    37   25   31 ar
    38   26   27 1
    39   26   28 ar
    40   27   41 1
    41   27   42 1
    42   28   29 ar
    43   28   44 1
    44   29   30 ar
    45   29   43 1
    46   30   31 ar
@<TRIPOS>SUBSTRUCTURE
     1 ATP         1 GROUP 0 A     ****
@<TRIPOS>MOLECULE
[[[5-(6-amino-1,8-dihydropurine-6,8-diylium-7-id-9-yl)-3,4-dihydroxy-tetrahydrofuran-2-yl]methoxy-oxido-phosphoryl]oxy-oxido-phosphoryl] phosphate
   44    46     1     0     0
SMALL
USER_CHARGES

@<TRIPOS>ATOM
      1 PG         -0.8171   -1.6204   -6.8146 P.3       1 ATP        -1.1921
      2 O1G        -1.5814   -1.8245   -5.5107 O.co2     1 ATP         0.3195
      3 O2G        -1.3442   -0.4814   -7.6810 O.co2     1 ATP         0.3195
      4 O3G        -0.5297   -2.9078   -7.5800 O.co2     1 ATP         0.3195
      5 PB          1.7839   -1.8426   -5.3866 P.3       1 ATP        -1.1062
      6 O1B         2.0548   -3.2248   -5.9376 O.co2     1 ATP         0.3195
      7 O2B         2.9122   -0.8727   -5.1150 O.co2     1 ATP         0.3195
      8 O3B         0.6745   -1.1069   -6.3337 O.3       1 ATP         0.4672
      9 PA          1.2687   -2.6351   -2.5828 P.3       1 ATP        -1.1062
     10 O1A         1.8046   -4.0313   -2.8128 O.co2     1 ATP         0.3195
     11 O2A         0.1239   -2.3946   -1.6228 O.co2     1 ATP         0.3195
     12 O3A         0.8833   -1.9876   -4.0326 O.3       1 ATP         0.4672
     13 O5'         2.5245   -1.6648   -2.1878 O.3       1 ATP         0.1618
     14 C5'         2.2816   -0.2918   -1.9206 C.3       1 ATP         0.1504
     15 C4'         2.7248    0.0226   -0.4980 C.3       1 ATP         0.1111
     16 O4'         2.4697    1.4219   -0.2462 O.3       1 ATP        -0.1436
     17 C3'         1.9404   -0.7419    0.5596 C.3       1 ATP         0.1111
     18 O3'         2.7418   -0.8086    1.7389 O.3       1 ATP        -0.2728
     19 C2'         0.7477    0.1630    0.7858 C.3       1 ATP         0.1111
     20 O2'         0.1373   -0.0577    2.0407 O.3       1 ATP        -0.2728
     21 C1'         1.3733    1.5427    0.6747 C.3       1 ATP         0.2693
     22 N9          0.4520    2.5240    0.1767 N.pl3     1 ATP        -0.3222
     23 C8          0.5793    3.3338   -1.1209 C.ar      1 ATP         0.1640
     24 N7         -0.4807    4.1508   -1.2458 N.2       1 ATP        -0.1640
     25 C5         -1.1921    3.8572   -0.1126 C.ar      1 ATP         0.0820
     26 C6         -2.4855    4.5203    0.2163 C.ar      1 ATP         0.1640
     27 N6         -2.9873    5.4319   -0.6020 N.pl3     1 ATP        -0.4916
     28 N1         -3.0414    4.1119    1.3596 N.pl3     1 ATP        -0.4390
     29 C2         -2.4169    3.1071    2.1904 C.ar      1 ATP         0.5691
     30 N3         -1.2928    2.5191    1.9210 N.ar      1 ATP        -0.4283
     31 C4         -0.7202    2.9326    0.7534 C.ar      1 ATP         0.2226
     32 H5'1        2.8432    0.3119   -2.6398 H         1 ATP        -0.0393
     33 H5'2        1.2128   -0.0927   -2.0428 H         1 ATP        -0.0393
     34 H4'         3.8040   -0.1399   -0.4044 H         1 ATP        -0.0393
     35 H3'         1.6768   -1.7637    0.2732 H         1 ATP        -0.0393
     36 HO3'        3.5553   -1.2733    1.4913 H         1 ATP         0.2010
     37 H2'         0.0002   -0.0084   -0.0014 H         1 ATP        -0.0393
     38 HO2'       -0.1554   -0.9852    2.0577 H         1 ATP         0.2010
     39 H1'         1.7718    1.9211    1.6015 H         1 ATP        -0.0393
     40 H8          1.3565    3.3309   -1.8916 H         1 ATP         0.0000
     41 HN61       -2.4952    5.6785   -1.4487 H         1 ATP         0.2048
     42 HN62       -3.8637    5.8828   -0.3819 H         1 ATP         0.2048
     43 H2         -2.9911    2.8734    3.1000 H         1 ATP        -0.1292
     44 H44        -3.9253    4.5332    1.6302 H         1 ATP         0.2048
@<TRIPOS>BOND
     1    1    2 2
     2    1    3 1
     3    1    4 1
     4    1    8 1
     5    5    6 2
     6    5    7 1
     7    5    8 1
     8    5   12 1
     9    9   10 2
    10    9   11 1
    11    9   12 1
    12    9   13 1
    13   13   14 1
    14   14   15 1
    15   14   32 1
    16   14   33 1
    17   15   16 1
    18   15   17 1
    19   15   34 1
    20   16   21 1
    21   17   18 1
    22   17   19 1
    23   17   35 1
    24   18   36 1
    25   19   20 1
    26   19   21 1
    27   19   37 1
    28   20   38 1
    29   21   22 1
    30   21   39 1
    31   22   23 ar
    32   22   31 ar
    33   23   24 ar
    34   23   40 1
    35   24   25 ar
    36   25   26 ar
    37   25   31 ar
    38   26   27 1
    39   26   28 ar
    40   27   41 1
    41   27   42 1
    42   28   29 ar
    43   28   44 1
    44   29   30 ar
    45   29   43 1
    46   30   31 ar
@<TRIPOS>SUBSTRUCTURE
     1 ATP         1 GROUP 0 A     ****
@<TRIPOS>MOLECULE
[[[5-(6-amino-1,8-dihydropurine-6,8-diylium-7-id-9-yl)-3,4-dihydroxy-tetrahydrofuran-2-yl]methoxy-oxido-phosphoryl]oxy-oxido-phosphoryl] phosphate
   44    46     1     0     0
SMALL
USER_CHARGES

@<TRIPOS>ATOM
      1 PG         -1.7225   -4.0447    6.7380 P.3       1 ATP        -1.1921
      2 O1G        -3.0828   -3.3751    6.9018 O.co2     1 ATP         0.3195
      3 O2G        -0.8778   -4.0718    8.0074 O.co2     1 ATP         0.3195
      4 O3G        -0.9606   -3.6171    5.4880 O.co2     1 ATP         0.3195
      5 PB         -2.9573   -6.3112    5.2574 P.3       1 ATP        -1.1062
      6 O1B        -2.8405   -7.8154    5.3639 O.co2     1 ATP         0.3195
      7 O2B        -4.3077   -5.6331    5.1939 O.co2     1 ATP         0.3195
      8 O3B        -2.0823   -5.6294    6.4568 O.3       1 ATP         0.4672
      9 PA         -2.2649   -6.0688    2.3909 P.3       1 ATP        -1.1062
     10 O1A        -3.5185   -5.3467    1.9474 O.co2     1 ATP         0.3195
     11 O2A        -2.0835   -7.5452    2.1129 O.co2     1 ATP         0.3195
     12 O3A        -2.0598   -5.8063    3.9905 O.3       1 ATP         0.4672
     13 O5'        -0.9724   -5.2440    1.8220 O.3       1 ATP         0.1618
     14 C5'        -0.7840   -3.8935    2.2172 C.3       1 ATP         0.1504
     15 C4'        -0.0724   -3.1466    1.1027 C.3       1 ATP         0.1111
     16 O4'        -0.8674   -3.1929   -0.0945 O.3       1 ATP        -0.1436
     17 C3'         0.1338   -1.6715    1.4027 C.3       1 ATP         0.1111
     18 O3'         1.2893   -1.4445    2.1808 O.3       1 ATP        -0.2728
     19 C2'         0.2158   -1.0724    0.0128 C.3       1 ATP         0.1111
     20 O2'         1.5141   -1.2448   -0.5513 O.3       1 ATP        -0.2728
     21 C1'        -0.7897   -1.9176   -0.7583 C.3       1 ATP         0.2693
     22 N9         -2.1040   -1.3333   -0.7704 N.pl3     1 ATP        -0.3222
     23 C8         -3.2124   -1.5345    0.2719 C.ar      1 ATP         0.1640
     24 N7         -4.2964   -0.8234   -0.0828 N.2       1 ATP        -0.1640
     25 C5         -3.8754   -0.2386   -1.2478 C.ar      1 ATP         0.0820
     26 C6         -4.7432    0.6719   -2.0470 C.ar      1 ATP         0.1640
     27 N6         -5.9725    0.9415   -1.6366 N.pl3     1 ATP        -0.4916
     28 N1         -4.1703    1.1517   -3.1536 N.pl3     1 ATP        -0.4390
     29 C2         -2.8174    0.7994   -3.5215 C.ar      1 ATP         0.5691
     30 N3         -2.0475    0.0097   -2.8393 N.ar      1 ATP        -0.4283
     31 C4         -2.6278   -0.4836   -1.7071 C.ar      1 ATP         0.2226
     32 H5'1       -1.7618   -3.4448    2.4164 H         1 ATP        -0.0393
     33 H5'2       -0.1874   -3.8744    3.1341 H         1 ATP        -0.0393
     34 H4'         0.8871   -3.6466    0.8809 H         1 ATP        -0.0393
     35 H3'        -0.7370   -1.2334    1.9869 H         1 ATP        -0.0393
     36 HO3'        1.3407   -0.4871    2.3218 H         1 ATP         0.2010
     37 H2'        -0.0343   -0.0280    0.0196 H         1 ATP        -0.0393
     38 HO2'        2.1443   -0.7955    0.0378 H         1 ATP         0.2010
     39 H1'        -0.5175   -2.1046   -1.7826 H         1 ATP        -0.0393
     40 H8         -3.2310   -2.1319    1.1889 H         1 ATP         0.0000
     41 HN61       -6.3231    0.5316   -0.7829 H         1 ATP         0.2048
     42 HN62       -6.5628    1.5584   -2.1760 H         1 ATP         0.2048
     43 H2         -2.4822    1.2710   -4.4579 H         1 ATP        -0.1292
     44 H44        -4.7200    1.7780   -3.7346 H         1 ATP         0.2048
@<TRIPOS>BOND
     1    1    2 2
     2    1    3 1
     3    1    4 1
     4    1    8 1
     5    5    6 2
     6    5    7 1
     7    5    8 1
     8    5   12 1
     9    9   10 2
    10    9   11 1
    11    9   12 1
    12    9   13 1
    13   13   14 1
    14   14   15 1
    15   14   32 1
    16   14   33 1
    17   15   16 1
    18   15   17 1
    19   15   34 1
    20   16   21 1
    21   17   18 1
    22   17   19 1
    23   17   35 1
    24   18   36 1
    25   19   20 1
    26   19   21 1
    27   19   37 1
    28   20   38 1
    29   21   22 1
    30   21   39 1
    31   22   23 ar
    32   22   31 ar
    33   23   24 ar
    34   23   40 1
    35   24   25 ar
    36   25   26 ar
    37   25   31 ar
    38   26   27 1
    39   26   28 ar
    40   27   41 1
    41   27   42 1
    42   28   29 ar
    43   28   44 1
    44   29   30 ar
    45   29   43 1
    46   30   31 ar
@<TRIPOS>SUBSTRUCTURE
     1 ATP         1 GROUP 0 A     ****
@<TRIPOS>MOLECULE
[[[5-(6-amino-1,8-dihydropurine-6,8-diylium-7-id-9-yl)-3,4-dihydroxy-tetrahydrofuran-2-yl]methoxy-oxido-phosphoryl]oxy-oxido-phosphoryl] phosphate
   44    46     1     0     0
SMALL
USER_CHARGES

@<TRIPOS>ATOM
      1 PG          6.1325   -3.5322   -2.4991 P.3       1 ATP        -1.1921
      2 O1G         5.5821   -2.3630   -1.6892 O.co2     1 ATP         0.3195
      3 O2G         6.1063   -4.8708   -1.7689 O.co2     1 ATP         0.3195
      4 O3G         7.4462   -3.2350   -3.2145 O.co2     1 ATP         0.3195
      5 PB          4.5890   -2.6701   -4.8924 P.3       1 ATP        -1.1062
      6 O1B         5.8235   -2.1519   -5.5959 O.co2     1 ATP         0.3195
      7 O2B         3.4415   -3.2765   -5.6690 O.co2     1 ATP         0.3195
      8 O3B         5.0488   -3.7197   -3.7279 O.3       1 ATP         0.4672
      9 PA          3.3347   -0.0507   -4.3265 P.3       1 ATP        -1.1062
     10 O1A         2.0144   -0.3128   -5.0175 O.co2     1 ATP         0.3195
     11 O2A         4.3920    0.8123   -4.9804 O.co2     1 ATP         0.3195
     12 O3A         4.0016   -1.4888   -3.9307 O.3       1 ATP         0.4672
     13 O5'         3.0213    0.5153   -2.8245 O.3       1 ATP         0.1618
     14 C5'         2.2816   -0.2918   -1.9206 C.3       1 ATP         0.1504
     15 C4'         2.7248    0.0226   -0.4980 C.3       1 ATP         0.1111
     16 O4'         2.4697    1.4219   -0.2462 O.3       1 ATP        -0.1436
     17 C3'         1.9404   -0.7419    0.5596 C.3       1 ATP         0.1111
     18 O3'         2.7418   -0.8086    1.7389 O.3       1 ATP        -0.2728
     19 C2'         0.7477    0.1630    0.7858 C.3       1 ATP         0.1111
     20 O2'         0.1373   -0.0577    2.0407 O.3       1 ATP        -0.2728
     21 C1'         1.3733    1.5427    0.6747 C.3       1 ATP         0.2693
     22 N9          0.4520    2.5240    0.1767 N.pl3     1 ATP        -0.3222
     23 C8         -0.7463    2.2774   -0.7501 C.ar      1 ATP         0.1640
     24 N7         -1.3714    3.4419   -0.9948 N.2       1 ATP        -0.1640
     25 C5         -0.6104    4.3223   -0.2723 C.ar      1 ATP         0.0820
     26 C6         -0.9062    5.7820   -0.2194 C.ar      1 ATP         0.1640
     27 N6         -1.9385    6.2713   -0.8881 N.pl3     1 ATP        -0.4916
     28 N1         -0.0613    6.4906    0.5336 N.pl3     1 ATP        -0.4390
     29 C2          1.0416    5.8662    1.2291 C.ar      1 ATP         0.5691
     30 N3          1.3146    4.5989    1.1954 N.ar      1 ATP        -0.4283
     31 C4          0.4541    3.8697    0.4273 C.ar      1 ATP         0.2226
     32 H5'1        1.2163   -0.0770   -2.0471 H         1 ATP        -0.0393
     33 H5'2        2.4655   -1.3443   -2.1563 H         1 ATP        -0.0393
     34 H4'         3.8040   -0.1399   -0.4044 H         1 ATP        -0.0393
     35 H3'         1.6768   -1.7637    0.2732 H         1 ATP        -0.0393
     36 HO3'        2.2231   -1.2979    2.3952 H         1 ATP         0.2010
     37 H2'         0.0002   -0.0084   -0.0014 H         1 ATP        -0.0393
     38 HO2'       -0.1554   -0.9852    2.0577 H         1 ATP         0.2010
     39 H1'         1.7718    1.9211    1.6015 H         1 ATP        -0.0393
     40 H8         -1.1244    1.3534   -1.1987 H         1 ATP         0.0000
     41 HN61       -2.5259    5.6573   -1.4336 H         1 ATP         0.2048
     42 HN62       -2.1416    7.2600   -0.8539 H         1 ATP         0.2048
     43 H2          1.6509    6.5764    1.8088 H         1 ATP        -0.1292
     44 H44        -0.2190    7.4917    0.6033 H         1 ATP         0.2048
@<TRIPOS>BOND
     1    1    2 2
     2    1    3 1
     3    1    4 1
     4    1    8 1
     5    5    6 2
     6    5    7 1
     7    5    8 1
     8    5   12 1
     9    9   10 2
    10    9   11 1
    11    9   12 1
    12    9   13 1
    13   13   14 1
    14   14   15 1
    15   14   32 1
    16   14   33 1
    17   15   16 1
    18   15   17 1
    19   15   34 1
    20   16   21 1
    21   17   18 1
    22   17   19 1
    23   17   35 1
    24   18   36 1
    25   19   20 1
    26   19   21 1
    27   19   37 1
    28   20   38 1
    29   21   22 1
    30   21   39 1
    31   22   23 ar
    32   22   31 ar
    33   23   24 ar
    34   23   40 1
    35   24   25 ar
    36   25   26 ar
    37   25   31 ar
    38   26   27 1
    39   26   28 ar
    40   27   41 1
    41   27   42 1
    42   28   29 ar
    43   28   44 1
    44   29   30 ar
    45   29   43 1
    46   30   31 ar
@<TRIPOS>SUBSTRUCTURE
     1 ATP         1 GROUP 0 A     ****
@<TRIPOS>MOLECULE
[[[5-(6-amino-1,8-dihydropurine-6,8-diylium-7-id-9-yl)-3,4-dihydroxy-tetrahydrofuran-2-yl]methoxy-oxido-phosphoryl]oxy-oxido-phosphoryl] phosphate
   44    46     1     0     0
SMALL
USER_CHARGES

@<TRIPOS>ATOM
      1 PG          1.4733   -6.5761   -2.6200 P.3       1 ATP        -1.1921
      2 O1G         0.0428   -7.0701   -2.8086 O.co2     1 ATP         0.3195
      3 O2G         2.4954   -7.2452   -3.5328 O.co2     1 ATP         0.3195
      4 O3G         1.9114   -6.4678   -1.1631 O.co2     1 ATP         0.3195
      5 PB          0.5494   -3.7477   -2.5932 P.3       1 ATP        -1.1062
      6 O1B        -0.9095   -4.0081   -2.8957 O.co2     1 ATP         0.3195
      7 O2B         1.0091   -3.3974   -1.1956 O.co2     1 ATP         0.3195
      8 O3B         1.4326   -5.0103   -3.1363 O.3       1 ATP         0.4672
      9 PA          2.6201   -2.0522   -3.8550 P.3       1 ATP        -1.1062
     10 O1A         2.5561   -0.8736   -4.8018 O.co2     1 ATP         0.3195
     11 O2A         3.5305   -3.2264   -4.1423 O.co2     1 ATP         0.3195
     12 O3A         1.1013   -2.6091   -3.6248 O.3       1 ATP         0.4672
     13 O5'         2.9216   -1.4836   -2.3516 O.3       1 ATP         0.1618
     14 C5'         2.2816   -0.2918   -1.9206 C.3       1 ATP         0.1504
     15 C4'         2.7248    0.0226   -0.4980 C.3       1 ATP         0.1111
     16 O4'         2.4697    1.4219   -0.2462 O.3       1 ATP        -0.1436
     17 C3'         1.9404   -0.7419    0.5596 C.3       1 ATP         0.1111
     18 O3'         2.7418   -0.8086    1.7389 O.3       1 ATP        -0.2728
     19 C2'         0.7477    0.1630    0.7858 C.3       1 ATP         0.1111
     20 O2'         0.1373   -0.0577    2.0407 O.3       1 ATP        -0.2728
     21 C1'         1.3733    1.5427    0.6747 C.3       1 ATP         0.2693
     22 N9          0.4520    2.5240    0.1767 N.pl3     1 ATP        -0.3222
     23 C8         -0.3054    2.4845   -1.1576 C.ar      1 ATP         0.1640
     24 N7         -1.0755    3.5806   -1.2691 N.2       1 ATP        -0.1640
     25 C5         -0.8043    4.2306   -0.0942 C.ar      1 ATP         0.0820
     26 C6         -1.4324    5.5335    0.2646 C.ar      1 ATP         0.1640
     27 N6         -2.2885    6.1054   -0.5675 N.pl3     1 ATP        -0.4916
     28 N1         -1.0537    6.0229    1.4478 N.pl3     1 ATP        -0.4390
     29 C2         -0.1096    5.3242    2.2908 C.ar      1 ATP         0.5691
     30 N3          0.4468    4.1904    1.9960 N.ar      1 ATP        -0.4283
     31 C4          0.0631    3.6855    0.7877 C.ar      1 ATP         0.2226
     32 H5'1        2.5589    0.5217   -2.5976 H         1 ATP        -0.0393
     33 H5'2        1.1982   -0.4388   -1.9617 H         1 ATP        -0.0393
     34 H4'         3.8040   -0.1399   -0.4044 H         1 ATP        -0.0393
     35 H3'         1.6768   -1.7637    0.2732 H         1 ATP        -0.0393
     36 HO3'        2.2231   -1.2979    2.3952 H         1 ATP         0.2010
     37 H2'         0.0002   -0.0084   -0.0014 H         1 ATP        -0.0393
     38 HO2'       -0.6132    0.5577    2.1063 H         1 ATP         0.2010
     39 H1'         1.7718    1.9211    1.6015 H         1 ATP        -0.0393
     40 H8         -0.2991    1.7413   -1.9611 H         1 ATP         0.0000
     41 HN61       -2.5167    5.6603   -1.4447 H         1 ATP         0.2048
     42 HN62       -2.7159    6.9882   -0.3270 H         1 ATP         0.2048
     43 H2          0.1059    5.8491    3.2340 H         1 ATP        -0.1292
     44 H44        -1.4532    6.9099    1.7401 H         1 ATP         0.2048
@<TRIPOS>BOND
     1    1    2 2
     2    1    3 1
     3    1    4 1
     4    1    8 1
     5    5    6 2
     6    5    7 1
     7    5    8 1
     8    5   12 1
     9    9   10 2
    10    9   11 1
    11    9   12 1
    12    9   13 1
    13   13   14 1
    14   14   15 1
    15   14   32 1
    16   14   33 1
    17   15   16 1
    18   15   17 1
    19   15   34 1
    20   16   21 1
    21   17   18 1
    22   17   19 1
    23   17   35 1
    24   18   36 1
    25   19   20 1
    26   19   21 1
    27   19   37 1
    28   20   38 1
    29   21   22 1
    30   21   39 1
    31   22   23 ar
    32   22   31 ar
    33   23   24 ar
    34   23   40 1
    35   24   25 ar
    36   25   26 ar
    37   25   31 ar
    38   26   27 1
    39   26   28 ar
    40   27   41 1
    41   27   42 1
    42   28   29 ar
    43   28   44 1
    44   29   30 ar
    45   29   43 1
    46   30   31 ar
@<TRIPOS>SUBSTRUCTURE
     1 ATP         1 GROUP 0 A     ****
@<TRIPOS>MOLECULE
[[[5-(6-amino-1,8-dihydropurine-6,8-diylium-7-id-9-yl)-3,4-dihydroxy-tetrahydrofuran-2-yl]methoxy-oxido-phosphoryl]oxy-oxido-phosphoryl] phosphate
   44    46     1     0     0
SMALL
USER_CHARGES

@<TRIPOS>ATOM
      1 PG          9.0333   -1.5060   -3.6983 P.3       1 ATP        -1.1921
      2 O1G         9.7505   -0.3139   -3.0737 O.co2     1 ATP         0.3195
      3 O2G         9.3386   -2.8434   -3.0322 O.co2     1 ATP         0.3195
      4 O3G         9.0847   -1.5395   -5.2222 O.co2     1 ATP         0.3195
      5 PB          6.4735    0.0088   -3.7791 P.3       1 ATP        -1.1062
      6 O1B         6.9511    1.2525   -3.0632 O.co2     1 ATP         0.3195
      7 O2B         6.2768   -0.0050   -5.2786 O.co2     1 ATP         0.3195
      8 O3B         7.4403   -1.2410   -3.3639 O.3       1 ATP         0.4672
      9 PA          3.8941   -1.4366   -3.6656 P.3       1 ATP        -1.1062
     10 O1A         4.4396   -2.8285   -3.8994 O.co2     1 ATP         0.3195
     11 O2A         3.2023   -0.6799   -4.7786 O.co2     1 ATP         0.3195
     12 O3A         5.0976   -0.5072   -3.0676 O.3       1 ATP         0.4672
     13 O5'         2.9216   -1.4836   -2.3516 O.3       1 ATP         0.1618
     14 C5'         2.2816   -0.2918   -1.9206 C.3       1 ATP         0.1504
     15 C4'         2.7248    0.0226   -0.4980 C.3       1 ATP         0.1111
     16 O4'         2.4697    1.4219   -0.2462 O.3       1 ATP        -0.1436
     17 C3'         1.9404   -0.7419    0.5596 C.3       1 ATP         0.1111
     18 O3'         2.7418   -0.8086    1.7389 O.3       1 ATP        -0.2728
     19 C2'         0.7477    0.1630    0.7858 C.3       1 ATP         0.1111
     20 O2'         0.1373   -0.0577    2.0407 O.3       1 ATP        -0.2728
     21 C1'         1.3733    1.5427    0.6747 C.3       1 ATP         0.2693
     22 N9          0.4520    2.5240    0.1767 N.pl3     1 ATP        -0.3222
     23 C8         -0.3054    2.4845   -1.1576 C.ar      1 ATP         0.1640
     24 N7         -1.0755    3.5806   -1.2691 N.2       1 ATP        -0.1640
     25 C5         -0.8043    4.2306   -0.0942 C.ar      1 ATP         0.0820
     26 C6         -1.4324    5.5335    0.2646 C.ar      1 ATP         0.1640
     27 N6         -2.2885    6.1054   -0.5675 N.pl3     1 ATP        -0.4916
     28 N1         -1.0537    6.0229    1.4478 N.pl3     1 ATP        -0.4390
     29 C2         -0.1096    5.3242    2.2908 C.ar      1 ATP         0.5691
     30 N3          0.4468    4.1904    1.9960 N.ar      1 ATP        -0.4283
     31 C4          0.0631    3.6855    0.7877 C.ar      1 ATP         0.2226
     32 H5'1        2.5589    0.5217   -2.5976 H         1 ATP        -0.0393
     33 H5'2        1.1982   -0.4388   -1.9617 H         1 ATP        -0.0393
     34 H4'         3.8040   -0.1399   -0.4044 H         1 ATP        -0.0393
     35 H3'         1.6768   -1.7637    0.2732 H         1 ATP        -0.0393
     36 HO3'        2.2231   -1.2979    2.3952 H         1 ATP         0.2010
     37 H2'         0.0002   -0.0084   -0.0014 H         1 ATP        -0.0393
     38 HO2'       -0.6132    0.5577    2.1063 H         1 ATP         0.2010
     39 H1'         1.7718    1.9211    1.6015 H         1 ATP        -0.0393
     40 H8         -0.2991    1.7413   -1.9611 H         1 ATP         0.0000
     41 HN61       -2.5167    5.6603   -1.4447 H         1 ATP         0.2048
     42 HN62       -2.7159    6.9882   -0.3270 H         1 ATP         0.2048
     43 H2          0.1059    5.8491    3.2340 H         1 ATP        -0.1292
     44 H44        -1.4532    6.9099    1.7401 H         1 ATP         0.2048
@<TRIPOS>BOND
     1    1    2 2
     2    1    3 1
     3    1    4 1
     4    1    8 1
     5    5    6 2
     6    5    7 1
     7    5    8 1
     8    5   12 1
     9    9   10 2
    10    9   11 1
    11    9   12 1
    12    9   13 1
    13   13   14 1
    14   14   15 1
    15   14   32 1
    16   14   33 1
    17   15   16 1
    18   15   17 1
    19   15   34 1
    20   16   21 1
    21   17   18 1
    22   17   19 1
    23   17   35 1
    24   18   36 1
    25   19   20 1
    26   19   21 1
    27   19   37 1
    28   20   38 1
    29   21   22 1
    30   21   39 1
    31   22   23 ar
    32   22   31 ar
    33   23   24 ar
    34   23   40 1
    35   24   25 ar
    36   25   26 ar
    37   25   31 ar
    38   26   27 1
    39   26   28 ar
    40   27   41 1
    41   27   42 1
    42   28   29 ar
    43   28   44 1
    44   29   30 ar
    45   29   43 1
    46   30   31 ar
@<TRIPOS>SUBSTRUCTURE
     1 ATP         1 GROUP 0 A     ****
@<TRIPOS>MOLECULE
[[[5-(6-amino-1,8-dihydropurine-6,8-diylium-7-id-9-yl)-3,4-dihydroxy-tetrahydrofuran-2-yl]methoxy-oxido-phosphoryl]oxy-oxido-phosphoryl] phosphate
   44    46     1     0     0
SMALL
USER_CHARGES

@<TRIPOS>ATOM
      1 PG         -3.7308   -7.5288    4.4573 P.3       1 ATP        -1.1921
      2 O1G        -3.7177   -9.0493    4.3401 O.co2     1 ATP         0.3195
      3 O2G        -4.8906   -6.9709    5.2754 O.co2     1 ATP         0.3195
      4 O3G        -3.4834   -6.7972    3.1422 O.co2     1 ATP         0.3195
      5 PB         -0.8186   -7.4977    5.0674 P.3       1 ATP        -1.1062
      6 O1B        -0.0722   -7.5061    6.3828 O.co2     1 ATP         0.3195
      7 O2B        -0.7260   -8.6623    4.1069 O.co2     1 ATP         0.3195
      8 O3B        -2.3945   -7.1804    5.3589 O.3       1 ATP         0.4672
      9 PA         -0.5242   -4.5704    4.7529 P.3       1 ATP        -1.1062
     10 O1A         0.5074   -4.3598    5.8396 O.co2     1 ATP         0.3195
     11 O2A        -1.9751   -4.2070    4.9829 O.co2     1 ATP         0.3195
     12 O3A        -0.4439   -6.1272    4.2632 O.3       1 ATP         0.4672
     13 O5'         0.0118   -3.8395    3.3916 O.3       1 ATP         0.1618
     14 C5'        -0.7840   -3.8935    2.2172 C.3       1 ATP         0.1504
     15 C4'        -0.0724   -3.1466    1.1027 C.3       1 ATP         0.1111
     16 O4'        -0.8674   -3.1929   -0.0945 O.3       1 ATP        -0.1436
     17 C3'         0.1338   -1.6715    1.4027 C.3       1 ATP         0.1111
     18 O3'         1.2893   -1.4445    2.1808 O.3       1 ATP        -0.2728
     19 C2'         0.2158   -1.0724    0.0128 C.3       1 ATP         0.1111
     20 O2'         1.5141   -1.2448   -0.5513 O.3       1 ATP        -0.2728
     21 C1'        -0.7897   -1.9176   -0.7583 C.3       1 ATP         0.2693
     22 N9         -2.1040   -1.3333   -0.7704 N.pl3     1 ATP        -0.3222
     23 C8         -3.2124   -1.5345    0.2719 C.ar      1 ATP         0.1640
     24 N7         -4.2964   -0.8234   -0.0828 N.2       1 ATP        -0.1640
     25 C5         -3.8754   -0.2386   -1.2478 C.ar      1 ATP         0.0820
     26 C6         -4.7432    0.6719   -2.0470 C.ar      1 ATP         0.1640
     27 N6         -5.9725    0.9415   -1.6366 N.pl3     1 ATP        -0.4916
     28 N1         -4.1703    1.1517   -3.1536 N.pl3     1 ATP        -0.4390
     29 C2         -2.8174    0.7994   -3.5215 C.ar      1 ATP         0.5691
     30 N3         -2.0475    0.0097   -2.8393 N.ar      1 ATP        -0.4283
     31 C4         -2.6278   -0.4836   -1.7071 C.ar      1 ATP         0.2226
     32 H5'1       -0.9348   -4.9415    1.9415 H         1 ATP        -0.0393
     33 H5'2       -1.7548   -3.4350    2.4278 H         1 ATP        -0.0393
     34 H4'         0.8871   -3.6466    0.8809 H         1 ATP        -0.0393
     35 H3'        -0.7370   -1.2334    1.9869 H         1 ATP        -0.0393
     36 HO3'        1.3407   -0.4871    2.3218 H         1 ATP         0.2010
     37 H2'        -0.0343   -0.0280    0.0196 H         1 ATP        -0.0393
     38 HO2'        1.4978   -0.8409   -1.4361 H         1 ATP         0.2010
     39 H1'        -0.5175   -2.1046   -1.7826 H         1 ATP        -0.0393
     40 H8         -3.2310   -2.1319    1.1889 H         1 ATP         0.0000
     41 HN61       -6.3231    0.5316   -0.7829 H         1 ATP         0.2048
     42 HN62       -6.5628    1.5584   -2.1760 H         1 ATP         0.2048
     43 H2         -2.4822    1.2710   -4.4579 H         1 ATP        -0.1292
     44 H44        -4.7200    1.7780   -3.7346 H         1 ATP         0.2048
@<TRIPOS>BOND
     1    1    2 2
     2    1    3 1
     3    1    4 1
     4    1    8 1
     5    5    6 2
     6    5    7 1
     7    5    8 1
     8    5   12 1
     9    9   10 2
    10    9   11 1
    11    9   12 1
    12    9   13 1
    13   13   14 1
    14   14   15 1
    15   14   32 1
    16   14   33 1
    17   15   16 1
    18   15   17 1
    19   15   34 1
    20   16   21 1
    21   17   18 1
    22   17   19 1
    23   17   35 1
    24   18   36 1
    25   19   20 1
    26   19   21 1
    27   19   37 1
    28   20   38 1
    29   21   22 1
    30   21   39 1
    31   22   23 ar
    32   22   31 ar
    33   23   24 ar
    34   23   40 1
    35   24   25 ar
    36   25   26 ar
    37   25   31 ar
    38   26   27 1
    39   26   28 ar
    40   27   41 1
    41   27   42 1
    42   28   29 ar
    43   28   44 1
    44   29   30 ar
    45   29   43 1
    46   30   31 ar
@<TRIPOS>SUBSTRUCTURE
     1 ATP         1 GROUP 0 A     ****
@<TRIPOS>MOLECULE
[[[5-(6-amino-1,8-dihydropurine-6,8-diylium-7-id-9-yl)-3,4-dihydroxy-tetrahydrofuran-2-yl]methoxy-oxido-phosphoryl]oxy-oxido-phosphoryl] phosphate
   44    46     1     0     0
SMALL
USER_CHARGES

@<TRIPOS>ATOM
      1 PG          2.1838   -5.1452   -6.3104 P.3       1 ATP        -1.1921
      2 O1G         2.5936   -6.3320   -5.4446 O.co2     1 ATP         0.3195
      3 O2G         0.6788   -5.0027   -6.5107 O.co2     1 ATP         0.3195
      4 O3G         3.0029   -4.9895   -7.5874 O.co2     1 ATP         0.3195
      5 PB          4.0588   -3.3600   -4.8436 P.3       1 ATP        -1.1062
      6 O1B         4.5173   -4.3579   -3.8036 O.co2     1 ATP         0.3195
      7 O2B         4.9412   -2.9871   -6.0139 O.co2     1 ATP         0.3195
      8 O3B         2.5999   -3.8260   -5.4125 O.3       1 ATP         0.4672
      9 PA          4.4792   -0.9077   -3.2423 P.3       1 ATP        -1.1062
     10 O1A         5.4086   -0.2021   -4.2056 O.co2     1 ATP         0.3195
     11 O2A         5.0196   -1.5815   -1.9997 O.co2     1 ATP         0.3195
     12 O3A         3.5930   -1.9917   -4.0845 O.3       1 ATP         0.4672
     13 O5'         3.2903    0.1346   -2.8241 O.3       1 ATP         0.1618
     14 C5'         2.2816   -0.2918   -1.9206 C.3       1 ATP         0.1504
     15 C4'         2.7248    0.0226   -0.4980 C.3       1 ATP         0.1111
     16 O4'         2.4697    1.4219   -0.2462 O.3       1 ATP        -0.1436
     17 C3'         1.9404   -0.7419    0.5596 C.3       1 ATP         0.1111
     18 O3'         2.7418   -0.8086    1.7389 O.3       1 ATP        -0.2728
     19 C2'         0.7477    0.1630    0.7858 C.3       1 ATP         0.1111
     20 O2'         0.1373   -0.0577    2.0407 O.3       1 ATP        -0.2728
     21 C1'         1.3733    1.5427    0.6747 C.3       1 ATP         0.2693
     22 N9          0.4520    2.5240    0.1767 N.pl3     1 ATP        -0.3222
     23 C8         -1.0660    2.5608    0.3999 C.ar      1 ATP         0.1640
     24 N7         -1.5852    3.6333   -0.2221 N.2       1 ATP        -0.1640
     25 C5         -0.4682    4.1996   -0.7771 C.ar      1 ATP         0.0820
     26 C6         -0.5216    5.4476   -1.5899 C.ar      1 ATP         0.1640
     27 N6         -1.6813    6.0510   -1.7982 N.pl3     1 ATP        -0.4916
     28 N1          0.6621    5.8575   -2.0523 N.pl3     1 ATP        -0.4390
     29 C2          1.8795    5.1301   -1.7717 C.ar      1 ATP         0.5691
     30 N3          1.9458    4.0434   -1.0670 N.ar      1 ATP        -0.4283
     31 C4          0.7388    3.6199   -0.5917 C.ar      1 ATP         0.2226
     32 H5'1        1.3514    0.2330   -2.1577 H         1 ATP        -0.0393
     33 H5'2        2.1280   -1.3678   -2.0460 H         1 ATP        -0.0393
     34 H4'         3.8040   -0.1399   -0.4044 H         1 ATP        -0.0393
     35 H3'         1.6768   -1.7637    0.2732 H         1 ATP        -0.0393
     36 HO3'        2.2231   -1.2979    2.3952 H         1 ATP         0.2010
     37 H2'         0.0002   -0.0084   -0.0014 H         1 ATP        -0.0393
     38 HO2'       -0.1554   -0.9852    2.0577 H         1 ATP         0.2010
     39 H1'         1.7718    1.9211    1.6015 H         1 ATP        -0.0393
     40 H8         -1.7235    1.8833    0.9537 H         1 ATP         0.0000
     41 HN61       -2.5296    5.6672   -1.4072 H         1 ATP         0.2048
     42 HN62       -1.7205    6.8969   -2.3483 H         1 ATP         0.2048
     43 H2          2.7750    5.5878   -2.2190 H         1 ATP        -0.1292
     44 H44         0.6808    6.7046   -2.6128 H         1 ATP         0.2048
@<TRIPOS>BOND
     1    1    2 2
     2    1    3 1
     3    1    4 1
     4    1    8 1
     5    5    6 2
     6    5    7 1
     7    5    8 1
     8    5   12 1
     9    9   10 2
    10    9   11 1
    11    9   12 1
    12    9   13 1
    13   13   14 1
    14   14   15 1
    15   14   32 1
    16   14   33 1
    17   15   16 1
    18   15   17 1
    19   15   34 1
    20   16   21 1
    21   17   18 1
    22   17   19 1
    23   17   35 1
    24   18   36 1
    25   19   20 1
    26   19   21 1
    27   19   37 1
    28   20   38 1
    29   21   22 1
    30   21   39 1
    31   22   23 ar
    32   22   31 ar
    33   23   24 ar
    34   23   40 1
    35   24   25 ar
    36   25   26 ar
    37   25   31 ar
    38   26   27 1
    39   26   28 ar
    40   27   41 1
    41   27   42 1
    42   28   29 ar
    43   28   44 1
    44   29   30 ar
    45   29   43 1
    46   30   31 ar
@<TRIPOS>SUBSTRUCTURE
     1 ATP         1 GROUP 0 A     ****
@<TRIPOS>MOLECULE
[[[5-(6-amino-1,8-dihydropurine-6,8-diylium-7-id-9-yl)-3,4-dihydroxy-tetrahydrofuran-2-yl]methoxy-oxido-phosphoryl]oxy-oxido-phosphoryl] phosphate
   44    46     1     0     0
SMALL
USER_CHARGES

@<TRIPOS>ATOM
      1 PG         -0.8016   -6.9208    7.7620 P.3       1 ATP        -1.1921
      2 O1G        -1.3592   -8.3392    7.8161 O.co2     1 ATP         0.3195
      3 O2G         0.7181   -6.8381    7.8582 O.co2     1 ATP         0.3195
      4 O3G        -1.5402   -5.9234    8.6485 O.co2     1 ATP         0.3195
      5 PB         -2.5753   -6.2543    5.4676 P.3       1 ATP        -1.1062
      6 O1B        -3.1726   -7.6293    5.2670 O.co2     1 ATP         0.3195
      7 O2B        -3.3623   -5.1482    6.1342 O.co2     1 ATP         0.3195
      8 O3B        -1.1390   -6.4110    6.2302 O.3       1 ATP         0.4672
      9 PA         -1.0041   -6.4128    2.9654 P.3       1 ATP        -1.1062
     10 O1A        -1.6907   -7.6276    2.3801 O.co2     1 ATP         0.3195
     11 O2A         0.3623   -6.5300    3.6052 O.co2     1 ATP         0.3195
     12 O3A        -2.0243   -5.7097    4.0305 O.3       1 ATP         0.4672
     13 O5'        -0.9724   -5.2440    1.8220 O.3       1 ATP         0.1618
     14 C5'        -0.7840   -3.8935    2.2172 C.3       1 ATP         0.1504
     15 C4'        -0.0724   -3.1466    1.1027 C.3       1 ATP         0.1111
     16 O4'        -0.8674   -3.1929   -0.0945 O.3       1 ATP        -0.1436
     17 C3'         0.1338   -1.6715    1.4027 C.3       1 ATP         0.1111
     18 O3'         1.2893   -1.4445    2.1808 O.3       1 ATP        -0.2728
     19 C2'         0.2158   -1.0724    0.0128 C.3       1 ATP         0.1111
     20 O2'         1.5141   -1.2448   -0.5513 O.3       1 ATP        -0.2728
     21 C1'        -0.7897   -1.9176   -0.7583 C.3       1 ATP         0.2693
     22 N9         -2.1040   -1.3333   -0.7704 N.pl3     1 ATP        -0.3222
     23 C8         -3.2124   -1.5345    0.2719 C.ar      1 ATP         0.1640
     24 N7         -4.2964   -0.8234   -0.0828 N.2       1 ATP        -0.1640
     25 C5         -3.8754   -0.2386   -1.2478 C.ar      1 ATP         0.0820
     26 C6         -4.7432    0.6719   -2.0470 C.ar      1 ATP         0.1640
     27 N6         -5.9725    0.9415   -1.6366 N.pl3     1 ATP        -0.4916
     28 N1         -4.1703    1.1517   -3.1536 N.pl3     1 ATP        -0.4390
     29 C2         -2.8174    0.7994   -3.5215 C.ar      1 ATP         0.5691
     30 N3         -2.0475    0.0097   -2.8393 N.ar      1 ATP        -0.4283
     31 C4         -2.6278   -0.4836   -1.7071 C.ar      1 ATP         0.2226
     32 H5'1       -1.7618   -3.4448    2.4164 H         1 ATP        -0.0393
     33 H5'2       -0.1874   -3.8744    3.1341 H         1 ATP        -0.0393
     34 H4'         0.8871   -3.6466    0.8809 H         1 ATP        -0.0393
     35 H3'        -0.7370   -1.2334    1.9869 H         1 ATP        -0.0393
     36 HO3'        1.3407   -0.4871    2.3218 H         1 ATP         0.2010
     37 H2'        -0.0343   -0.0280    0.0196 H         1 ATP        -0.0393
     38 HO2'        2.1443   -0.7955    0.0378 H         1 ATP         0.2010
     39 H1'        -0.5175   -2.1046   -1.7826 H         1 ATP        -0.0393
     40 H8         -3.2310   -2.1319    1.1889 H         1 ATP         0.0000
     41 HN61       -6.3231    0.5316   -0.7829 H         1 ATP         0.2048
     42 HN62       -6.5628    1.5584   -2.1760 H         1 ATP         0.2048
     43 H2         -2.4822    1.2710   -4.4579 H         1 ATP        -0.1292
     44 H44        -4.7200    1.7780   -3.7346 H         1 ATP         0.2048
@<TRIPOS>BOND
     1    1    2 2
     2    1    3 1
     3    1    4 1
     4    1    8 1
     5    5    6 2
     6    5    7 1
     7    5    8 1
     8    5   12 1
     9    9   10 2
    10    9   11 1
    11    9   12 1
    12    9   13 1
    13   13   14 1
    14   14   15 1
    15   14   32 1
    16   14   33 1
    17   15   16 1
    18   15   17 1
    19   15   34 1
    20   16   21 1
    21   17   18 1
    22   17   19 1
    23   17   35 1
    24   18   36 1
    25   19   20 1
    26   19   21 1
    27   19   37 1
    28   20   38 1
    29   21   22 1
    30   21   39 1
    31   22   23 ar
    32   22   31 ar
    33   23   24 ar
    34   23   40 1
    35   24   25 ar
    36   25   26 ar
    37   25   31 ar
    38   26   27 1
    39   26   28 ar
    40   27   41 1
    41   27   42 1
    42   28   29 ar
    43   28   44 1
    44   29   30 ar
    45   29   43 1
    46   30   31 ar
@<TRIPOS>SUBSTRUCTURE
     1 ATP         1 GROUP 0 A     ****
@<TRIPOS>MOLECULE
[[[5-(6-amino-1,8-dihydropurine-6,8-diylium-7-id-9-yl)-3,4-dihydroxy-tetrahydrofuran-2-yl]methoxy-oxido-phosphoryl]oxy-oxido-phosphoryl] phosphate
   44    46     1     0     0
SMALL
USER_CHARGES

@<TRIPOS>ATOM
      1 PG          2.3570   -4.1266   -4.9388 P.3       1 ATP        -1.1921
      2 O1G         0.8996   -3.8376   -4.5946 O.co2     1 ATP         0.3195
      3 O2G         2.5641   -5.3567   -5.8160 O.co2     1 ATP         0.3195
      4 O3G         3.3105   -4.0363   -3.7520 O.co2     1 ATP         0.3195
      5 PB          2.8279   -1.2605   -5.5851 P.3       1 ATP        -1.1062
      6 O1B         3.4837   -0.5458   -6.7456 O.co2     1 ATP         0.3195
      7 O2B         1.4654   -0.8439   -5.0779 O.co2     1 ATP         0.3195
      8 O3B         2.8043   -2.8634   -5.9001 O.3       1 ATP         0.4672
      9 PA          4.4374   -0.0458   -3.4198 P.3       1 ATP        -1.1062
     10 O1A         5.0088    1.0040   -4.3477 O.co2     1 ATP         0.3195
     11 O2A         5.2690   -0.6154   -2.2910 O.co2     1 ATP         0.3195
     12 O3A         3.8693   -1.2796   -4.3279 O.3       1 ATP         0.4672
     13 O5'         3.0213    0.5153   -2.8245 O.3       1 ATP         0.1618
     14 C5'         2.2816   -0.2918   -1.9206 C.3       1 ATP         0.1504
     15 C4'         2.7248    0.0226   -0.4980 C.3       1 ATP         0.1111
     16 O4'         2.4697    1.4219   -0.2462 O.3       1 ATP        -0.1436
     17 C3'         1.9404   -0.7419    0.5596 C.3       1 ATP         0.1111
     18 O3'         2.7418   -0.8086    1.7389 O.3       1 ATP        -0.2728
     19 C2'         0.7477    0.1630    0.7858 C.3       1 ATP         0.1111
     20 O2'         0.1373   -0.0577    2.0407 O.3       1 ATP        -0.2728
     21 C1'         1.3733    1.5427    0.6747 C.3       1 ATP         0.2693
     22 N9          0.4520    2.5240    0.1767 N.pl3     1 ATP        -0.3222
     23 C8         -1.0660    2.5608    0.3999 C.ar      1 ATP         0.1640
     24 N7         -1.5852    3.6333   -0.2221 N.2       1 ATP        -0.1640
     25 C5         -0.4682    4.1996   -0.7771 C.ar      1 ATP         0.0820
     26 C6         -0.5216    5.4476   -1.5899 C.ar      1 ATP         0.1640
     27 N6         -1.6813    6.0510   -1.7982 N.pl3     1 ATP        -0.4916
     28 N1          0.6621    5.8575   -2.0523 N.pl3     1 ATP        -0.4390
     29 C2          1.8795    5.1301   -1.7717 C.ar      1 ATP         0.5691
     30 N3          1.9458    4.0434   -1.0670 N.ar      1 ATP        -0.4283
     31 C4          0.7388    3.6199   -0.5917 C.ar      1 ATP         0.2226
     32 H5'1        1.2163   -0.0770   -2.0471 H         1 ATP        -0.0393
     33 H5'2        2.4655   -1.3443   -2.1563 H         1 ATP        -0.0393
     34 H4'         3.8040   -0.1399   -0.4044 H         1 ATP        -0.0393
     35 H3'         1.6768   -1.7637    0.2732 H         1 ATP        -0.0393
     36 HO3'        2.2231   -1.2979    2.3952 H         1 ATP         0.2010
     37 H2'         0.0002   -0.0084   -0.0014 H         1 ATP        -0.0393
     38 HO2'       -0.1554   -0.9852    2.0577 H         1 ATP         0.2010
     39 H1'         1.7718    1.9211    1.6015 H         1 ATP        -0.0393
     40 H8         -1.7235    1.8833    0.9537 H         1 ATP         0.0000
     41 HN61       -2.5296    5.6672   -1.4072 H         1 ATP         0.2048
     42 HN62       -1.7205    6.8969   -2.3483 H         1 ATP         0.2048
     43 H2          2.7750    5.5878   -2.2190 H         1 ATP        -0.1292
     44 H44         0.6808    6.7046   -2.6128 H         1 ATP         0.2048
@<TRIPOS>BOND
     1    1    2 2
     2    1    3 1
     3    1    4 1
     4    1    8 1
     5    5    6 2
     6    5    7 1
     7    5    8 1
     8    5   12 1
     9    9   10 2
    10    9   11 1
    11    9   12 1
    12    9   13 1
    13   13   14 1
    14   14   15 1
    15   14   32 1
    16   14   33 1
    17   15   16 1
    18   15   17 1
    19   15   34 1
    20   16   21 1
    21   17   18 1
    22   17   19 1
    23   17   35 1
    24   18   36 1
    25   19   20 1
    26   19   21 1
    27   19   37 1
    28   20   38 1
    29   21   22 1
    30   21   39 1
    31   22   23 ar
    32   22   31 ar
    33   23   24 ar
    34   23   40 1
    35   24   25 ar
    36   25   26 ar
    37   25   31 ar
    38   26   27 1
    39   26   28 ar
    40   27   41 1
    41   27   42 1
    42   28   29 ar
    43   28   44 1
    44   29   30 ar
    45   29   43 1
    46   30   31 ar
@<TRIPOS>SUBSTRUCTURE
     1 ATP         1 GROUP 0 A     ****
@<TRIPOS>MOLECULE
[[[5-(6-amino-1,8-dihydropurine-6,8-diylium-7-id-9-yl)-3,4-dihydroxy-tetrahydrofuran-2-yl]methoxy-oxido-phosphoryl]oxy-oxido-phosphoryl] phosphate
   44    46     1     0     0
SMALL
USER_CHARGES

@<TRIPOS>ATOM
      1 PG          5.3538   -5.6507   -3.4545 P.3       1 ATP        -1.1921
      2 O1G         6.5585   -5.5697   -4.3860 O.co2     1 ATP         0.3195
      3 O2G         5.7085   -5.8046   -1.9793 O.co2     1 ATP         0.3195
      4 O3G         4.2528   -6.5903   -3.9350 O.co2     1 ATP         0.3195
      5 PB          4.0588   -3.3600   -4.8436 P.3       1 ATP        -1.1062
      6 O1B         5.1931   -3.0274   -5.7871 O.co2     1 ATP         0.3195
      7 O2B         2.8248   -4.0879   -5.3282 O.co2     1 ATP         0.3195
      8 O3B         4.6652   -4.1553   -3.5518 O.3       1 ATP         0.4672
      9 PA          4.4792   -0.9077   -3.2423 P.3       1 ATP        -1.1062
     10 O1A         5.4086   -0.2021   -4.2056 O.co2     1 ATP         0.3195
     11 O2A         5.0196   -1.5815   -1.9997 O.co2     1 ATP         0.3195
     12 O3A         3.5930   -1.9917   -4.0845 O.3       1 ATP         0.4672
     13 O5'         3.2903    0.1346   -2.8241 O.3       1 ATP         0.1618
     14 C5'         2.2816   -0.2918   -1.9206 C.3       1 ATP         0.1504
     15 C4'         2.7248    0.0226   -0.4980 C.3       1 ATP         0.1111
     16 O4'         2.4697    1.4219   -0.2462 O.3       1 ATP        -0.1436
     17 C3'         1.9404   -0.7419    0.5596 C.3       1 ATP         0.1111
     18 O3'         2.7418   -0.8086    1.7389 O.3       1 ATP        -0.2728
     19 C2'         0.7477    0.1630    0.7858 C.3       1 ATP         0.1111
     20 O2'         0.1373   -0.0577    2.0407 O.3       1 ATP        -0.2728
     21 C1'         1.3733    1.5427    0.6747 C.3       1 ATP         0.2693
     22 N9          0.4520    2.5240    0.1767 N.pl3     1 ATP        -0.3222
     23 C8         -1.0660    2.5608    0.3999 C.ar      1 ATP         0.1640
     24 N7         -1.5852    3.6333   -0.2221 N.2       1 ATP        -0.1640
     25 C5         -0.4682    4.1996   -0.7771 C.ar      1 ATP         0.0820
     26 C6         -0.5216    5.4476   -1.5899 C.ar      1 ATP         0.1640
     27 N6         -1.6813    6.0510   -1.7982 N.pl3     1 ATP        -0.4916
     28 N1          0.6621    5.8575   -2.0523 N.pl3     1 ATP        -0.4390
     29 C2          1.8795    5.1301   -1.7717 C.ar      1 ATP         0.5691
     30 N3          1.9458    4.0434   -1.0670 N.ar      1 ATP        -0.4283
     31 C4          0.7388    3.6199   -0.5917 C.ar      1 ATP         0.2226
     32 H5'1        1.3514    0.2330   -2.1577 H         1 ATP        -0.0393
     33 H5'2        2.1280   -1.3678   -2.0460 H         1 ATP        -0.0393
     34 H4'         3.8040   -0.1399   -0.4044 H         1 ATP        -0.0393
     35 H3'         1.6768   -1.7637    0.2732 H         1 ATP        -0.0393
     36 HO3'        2.2231   -1.2979    2.3952 H         1 ATP         0.2010
     37 H2'         0.0002   -0.0084   -0.0014 H         1 ATP        -0.0393
     38 HO2'       -0.1554   -0.9852    2.0577 H         1 ATP         0.2010
     39 H1'         1.7718    1.9211    1.6015 H         1 ATP        -0.0393
     40 H8         -1.7235    1.8833    0.9537 H         1 ATP         0.0000
     41 HN61       -2.5296    5.6672   -1.4072 H         1 ATP         0.2048
     42 HN62       -1.7205    6.8969   -2.3483 H         1 ATP         0.2048
     43 H2          2.7750    5.5878   -2.2190 H         1 ATP        -0.1292
     44 H44         0.6808    6.7046   -2.6128 H         1 ATP         0.2048
@<TRIPOS>BOND
     1    1    2 2
     2    1    3 1
     3    1    4 1
     4    1    8 1
     5    5    6 2
     6    5    7 1
     7    5    8 1
     8    5   12 1
     9    9   10 2
    10    9   11 1
    11    9   12 1
    12    9   13 1
    13   13   14 1
    14   14   15 1
    15   14   32 1
    16   14   33 1
    17   15   16 1
    18   15   17 1
    19   15   34 1
    20   16   21 1
    21   17   18 1
    22   17   19 1
    23   17   35 1
    24   18   36 1
    25   19   20 1
    26   19   21 1
    27   19   37 1
    28   20   38 1
    29   21   22 1
    30   21   39 1
    31   22   23 ar
    32   22   31 ar
    33   23   24 ar
    34   23   40 1
    35   24   25 ar
    36   25   26 ar
    37   25   31 ar
    38   26   27 1
    39   26   28 ar
    40   27   41 1
    41   27   42 1
    42   28   29 ar
    43   28   44 1
    44   29   30 ar
    45   29   43 1
    46   30   31 ar
@<TRIPOS>SUBSTRUCTURE
     1 ATP         1 GROUP 0 A     ****
@<TRIPOS>MOLECULE
[[[5-(6-amino-1,8-dihydropurine-6,8-diylium-7-id-9-yl)-3,4-dihydroxy-tetrahydrofuran-2-yl]methoxy-oxido-phosphoryl]oxy-oxido-phosphoryl] phosphate
   44    46     1     0     0
SMALL
USER_CHARGES

@<TRIPOS>ATOM
      1 PG          0.1071   -0.8708   -7.8383 P.3       1 ATP        -1.1921
      2 O1G         1.4343   -0.8399   -8.5889 O.co2     1 ATP         0.3195
      3 O2G        -0.3816   -2.2707   -7.4818 O.co2     1 ATP         0.3195
      4 O3G        -0.9676    0.0358   -8.4290 O.co2     1 ATP         0.3195
      5 PB          1.0152    1.3151   -6.0352 P.3       1 ATP        -1.1062
      6 O1B         2.0137    1.7160   -7.0982 O.co2     1 ATP         0.3195
      7 O2B        -0.1527    2.2083   -5.6810 O.co2     1 ATP         0.3195
      8 O3B         0.4494   -0.1779   -6.3814 O.3       1 ATP         0.4672
      9 PA          3.0683   -0.0853   -4.4294 P.3       1 ATP        -1.1062
     10 O1A         4.2833    0.4538   -5.1525 O.co2     1 ATP         0.3195
     11 O2A         2.5798   -1.4950   -4.6828 O.co2     1 ATP         0.3195
     12 O3A         1.8276    0.9511   -4.6666 O.3       1 ATP         0.4672
     13 O5'         3.2903    0.1346   -2.8241 O.3       1 ATP         0.1618
     14 C5'         2.2816   -0.2918   -1.9206 C.3       1 ATP         0.1504
     15 C4'         2.7248    0.0226   -0.4980 C.3       1 ATP         0.1111
     16 O4'         2.4697    1.4219   -0.2462 O.3       1 ATP        -0.1436
     17 C3'         1.9404   -0.7419    0.5596 C.3       1 ATP         0.1111
     18 O3'         2.7418   -0.8086    1.7389 O.3       1 ATP        -0.2728
     19 C2'         0.7477    0.1630    0.7858 C.3       1 ATP         0.1111
     20 O2'         0.1373   -0.0577    2.0407 O.3       1 ATP        -0.2728
     21 C1'         1.3733    1.5427    0.6747 C.3       1 ATP         0.2693
     22 N9          0.4520    2.5240    0.1767 N.pl3     1 ATP        -0.3222
     23 C8         -1.0247    2.3053   -0.1800 C.ar      1 ATP         0.1640
     24 N7         -1.5580    3.4612   -0.6116 N.2       1 ATP        -0.1640
     25 C5         -0.4873    4.3110   -0.5222 C.ar      1 ATP         0.0820
     26 C6         -0.5728    5.7505   -0.8981 C.ar      1 ATP         0.1640
     27 N6         -1.7163    6.2514   -1.3385 N.pl3     1 ATP        -0.4916
     28 N1          0.5667    6.4301   -0.7475 N.pl3     1 ATP        -0.4390
     29 C2          1.7697    5.7952   -0.2579 C.ar      1 ATP         0.5691
     30 N3          1.8633    4.5450    0.0742 N.ar      1 ATP        -0.4283
     31 C4          0.7014    3.8457   -0.0776 C.ar      1 ATP         0.2226
     32 H5'1        1.3514    0.2330   -2.1577 H         1 ATP        -0.0393
     33 H5'2        2.1280   -1.3678   -2.0460 H         1 ATP        -0.0393
     34 H4'         3.8040   -0.1399   -0.4044 H         1 ATP        -0.0393
     35 H3'         1.6768   -1.7637    0.2732 H         1 ATP        -0.0393
     36 HO3'        3.5553   -1.2733    1.4913 H         1 ATP         0.2010
     37 H2'         0.0002   -0.0084   -0.0014 H         1 ATP        -0.0393
     38 HO2'       -0.6132    0.5577    2.1063 H         1 ATP         0.2010
     39 H1'         1.7718    1.9211    1.6015 H         1 ATP        -0.0393
     40 H8         -1.6458    1.4054   -0.1318 H         1 ATP         0.0000
     41 HN61       -2.5307    5.6598   -1.4199 H         1 ATP         0.2048
     42 HN62       -1.7773    7.2266   -1.5938 H         1 ATP         0.2048
     43 H2          2.6279    6.4808   -0.1872 H         1 ATP        -0.1292
     44 H44         0.5621    7.4166   -0.9900 H         1 ATP         0.2048
@<TRIPOS>BOND
     1    1    2 2
     2    1    3 1
     3    1    4 1
     4    1    8 1
     5    5    6 2
     6    5    7 1
     7    5    8 1
     8    5   12 1
     9    9   10 2
    10    9   11 1
    11    9   12 1
    12    9   13 1
    13   13   14 1
    14   14   15 1
    15   14   32 1
    16   14   33 1
    17   15   16 1
    18   15   17 1
    19   15   34 1
    20   16   21 1
    21   17   18 1
    22   17   19 1
    23   17   35 1
    24   18   36 1
    25   19   20 1
    26   19   21 1
    27   19   37 1
    28   20   38 1
    29   21   22 1
    30   21   39 1
    31   22   23 ar
    32   22   31 ar
    33   23   24 ar
    34   23   40 1
    35   24   25 ar
    36   25   26 ar
    37   25   31 ar
    38   26   27 1
    39   26   28 ar
    40   27   41 1
    41   27   42 1
    42   28   29 ar
    43   28   44 1
    44   29   30 ar
    45   29   43 1
    46   30   31 ar
@<TRIPOS>SUBSTRUCTURE
     1 ATP         1 GROUP 0 A     ****
@<TRIPOS>MOLECULE
[[[5-(6-amino-1,8-dihydropurine-6,8-diylium-7-id-9-yl)-3,4-dihydroxy-tetrahydrofuran-2-yl]methoxy-oxido-phosphoryl]oxy-oxido-phosphoryl] phosphate
   44    46     1     0     0
SMALL
USER_CHARGES

@<TRIPOS>ATOM
      1 PG          9.1504    0.9999   -3.3936 P.3       1 ATP        -1.1921
      2 O1G         9.6404   -0.3678   -3.8575 O.co2     1 ATP         0.3195
      3 O2G         9.0779    2.0497   -4.4973 O.co2     1 ATP         0.3195
      4 O3G         9.7970    1.4920   -2.1030 O.co2     1 ATP         0.3195
      5 PB          6.9376   -0.2571   -1.8516 P.3       1 ATP        -1.1062
      6 O1B         7.1755   -1.6867   -2.2842 O.co2     1 ATP         0.3195
      7 O2B         7.3486    0.2243   -0.4780 O.co2     1 ATP         0.3195
      8 O3B         7.5763    0.7449   -2.9729 O.3       1 ATP         0.4672
      9 PA          4.4374   -0.0458   -3.4198 P.3       1 ATP        -1.1062
     10 O1A         4.2717   -1.5190   -3.7229 O.co2     1 ATP         0.3195
     11 O2A         4.9542    0.9076   -4.4752 O.co2     1 ATP         0.3195
     12 O3A         5.3616    0.1021   -2.0805 O.3       1 ATP         0.4672
     13 O5'         3.0213    0.5153   -2.8245 O.3       1 ATP         0.1618
     14 C5'         2.2816   -0.2918   -1.9206 C.3       1 ATP         0.1504
     15 C4'         2.7248    0.0226   -0.4980 C.3       1 ATP         0.1111
     16 O4'         2.4697    1.4219   -0.2462 O.3       1 ATP        -0.1436
     17 C3'         1.9404   -0.7419    0.5596 C.3       1 ATP         0.1111
     18 O3'         2.7418   -0.8086    1.7389 O.3       1 ATP        -0.2728
     19 C2'         0.7477    0.1630    0.7858 C.3       1 ATP         0.1111
     20 O2'         0.1373   -0.0577    2.0407 O.3       1 ATP        -0.2728
     21 C1'         1.3733    1.5427    0.6747 C.3       1 ATP         0.2693
     22 N9          0.4520    2.5240    0.1767 N.pl3     1 ATP        -0.3222
     23 C8         -0.3054    2.4845   -1.1576 C.ar      1 ATP         0.1640
     24 N7         -1.0755    3.5806   -1.2691 N.2       1 ATP        -0.1640
     25 C5         -0.8043    4.2306   -0.0942 C.ar      1 ATP         0.0820
     26 C6         -1.4324    5.5335    0.2646 C.ar      1 ATP         0.1640
     27 N6         -2.2885    6.1054   -0.5675 N.pl3     1 ATP        -0.4916
     28 N1         -1.0537    6.0229    1.4478 N.pl3     1 ATP        -0.4390
     29 C2         -0.1096    5.3242    2.2908 C.ar      1 ATP         0.5691
     30 N3          0.4468    4.1904    1.9960 N.ar      1 ATP        -0.4283
     31 C4          0.0631    3.6855    0.7877 C.ar      1 ATP         0.2226
     32 H5'1        1.2163   -0.0770   -2.0471 H         1 ATP        -0.0393
     33 H5'2        2.4655   -1.3443   -2.1563 H         1 ATP        -0.0393
     34 H4'         3.8040   -0.1399   -0.4044 H         1 ATP        -0.0393
     35 H3'         1.6768   -1.7637    0.2732 H         1 ATP        -0.0393
     36 HO3'        3.5553   -1.2733    1.4913 H         1 ATP         0.2010
     37 H2'         0.0002   -0.0084   -0.0014 H         1 ATP        -0.0393
     38 HO2'       -0.1554   -0.9852    2.0577 H         1 ATP         0.2010
     39 H1'         1.7718    1.9211    1.6015 H         1 ATP        -0.0393
     40 H8         -0.2991    1.7413   -1.9611 H         1 ATP         0.0000
     41 HN61       -2.5167    5.6603   -1.4447 H         1 ATP         0.2048
     42 HN62       -2.7159    6.9882   -0.3270 H         1 ATP         0.2048
     43 H2          0.1059    5.8491    3.2340 H         1 ATP        -0.1292
     44 H44        -1.4532    6.9099    1.7401 H         1 ATP         0.2048
@<TRIPOS>BOND
     1    1    2 2
     2    1    3 1
     3    1    4 1
     4    1    8 1
     5    5    6 2
     6    5    7 1
     7    5    8 1
     8    5   12 1
     9    9   10 2
    10    9   11 1
    11    9   12 1
    12    9   13 1
    13   13   14 1
    14   14   15 1
    15   14   32 1
    16   14   33 1
    17   15   16 1
    18   15   17 1
    19   15   34 1
    20   16   21 1
    21   17   18 1
    22   17   19 1
    23   17   35 1
    24   18   36 1
    25   19   20 1
    26   19   21 1
    27   19   37 1
    28   20   38 1
    29   21   22 1
    30   21   39 1
    31   22   23 ar
    32   22   31 ar
    33   23   24 ar
    34   23   40 1
    35   24   25 ar
    36   25   26 ar
    37   25   31 ar
    38   26   27 1
    39   26   28 ar
    40   27   41 1
    41   27   42 1
    42   28   29 ar
    43   28   44 1
    44   29   30 ar
    45   29   43 1
    46   30   31 ar
@<TRIPOS>SUBSTRUCTURE
     1 ATP         1 GROUP 0 A     ****
@<TRIPOS>MOLECULE
[[[5-(6-amino-1,8-dihydropurine-6,8-diylium-7-id-9-yl)-3,4-dihydroxy-tetrahydrofuran-2-yl]methoxy-oxido-phosphoryl]oxy-oxido-phosphoryl] phosphate
   44    46     1     0     0
SMALL
USER_CHARGES

@<TRIPOS>ATOM
      1 PG         -1.3151    1.6280   -5.1292 P.3       1 ATP        -1.1921
      2 O1G        -2.0719    2.9519   -5.1176 O.co2     1 ATP         0.3195
      3 O2G        -1.7859    0.6436   -6.1946 O.co2     1 ATP         0.3195
      4 O3G        -1.1149    1.0090   -3.7498 O.co2     1 ATP         0.3195
      5 PB          1.2878    3.0530   -4.9106 P.3       1 ATP        -1.1062
      6 O1B         2.2638    3.5207   -5.9671 O.co2     1 ATP         0.3195
      7 O2B         0.5389    4.0407   -4.0440 O.co2     1 ATP         0.3195
      8 O3B         0.2108    2.0377   -5.6021 O.3       1 ATP         0.4672
      9 PA          2.8629    0.6171   -4.3271 P.3       1 ATP        -1.1062
     10 O1A         4.1195    1.0141   -5.0709 O.co2     1 ATP         0.3195
     11 O2A         1.8953   -0.3828   -4.9221 O.co2     1 ATP         0.3195
     12 O3A         2.0427    1.9769   -3.9423 O.3       1 ATP         0.4672
     13 O5'         3.2903    0.1346   -2.8241 O.3       1 ATP         0.1618
     14 C5'         2.2816   -0.2918   -1.9206 C.3       1 ATP         0.1504
     15 C4'         2.7248    0.0226   -0.4980 C.3       1 ATP         0.1111
     16 O4'         2.4697    1.4219   -0.2462 O.3       1 ATP        -0.1436
     17 C3'         1.9404   -0.7419    0.5596 C.3       1 ATP         0.1111
     18 O3'         2.7418   -0.8086    1.7389 O.3       1 ATP        -0.2728
     19 C2'         0.7477    0.1630    0.7858 C.3       1 ATP         0.1111
     20 O2'         0.1373   -0.0577    2.0407 O.3       1 ATP        -0.2728
     21 C1'         1.3733    1.5427    0.6747 C.3       1 ATP         0.2693
     22 N9          0.4520    2.5240    0.1767 N.pl3     1 ATP        -0.3222
     23 C8         -1.0660    2.5608    0.3999 C.ar      1 ATP         0.1640
     24 N7         -1.5852    3.6333   -0.2221 N.2       1 ATP        -0.1640
     25 C5         -0.4682    4.1996   -0.7771 C.ar      1 ATP         0.0820
     26 C6         -0.5216    5.4476   -1.5899 C.ar      1 ATP         0.1640
     27 N6         -1.6813    6.0510   -1.7982 N.pl3     1 ATP        -0.4916
     28 N1          0.6621    5.8575   -2.0523 N.pl3     1 ATP        -0.4390
     29 C2          1.8795    5.1301   -1.7717 C.ar      1 ATP         0.5691
     30 N3          1.9458    4.0434   -1.0670 N.ar      1 ATP        -0.4283
     31 C4          0.7388    3.6199   -0.5917 C.ar      1 ATP         0.2226
     32 H5'1        1.3514    0.2330   -2.1577 H         1 ATP        -0.0393
     33 H5'2        2.1280   -1.3678   -2.0460 H         1 ATP        -0.0393
     34 H4'         3.8040   -0.1399   -0.4044 H         1 ATP        -0.0393
     35 H3'         1.6768   -1.7637    0.2732 H         1 ATP        -0.0393
     36 HO3'        3.5553   -1.2733    1.4913 H         1 ATP         0.2010
     37 H2'         0.0002   -0.0084   -0.0014 H         1 ATP        -0.0393
     38 HO2'       -0.1554   -0.9852    2.0577 H         1 ATP         0.2010
     39 H1'         1.7718    1.9211    1.6015 H         1 ATP        -0.0393
     40 H8         -1.7235    1.8833    0.9537 H         1 ATP         0.0000
     41 HN61       -2.5296    5.6672   -1.4072 H         1 ATP         0.2048
     42 HN62       -1.7205    6.8969   -2.3483 H         1 ATP         0.2048
     43 H2          2.7750    5.5878   -2.2190 H         1 ATP        -0.1292
     44 H44         0.6808    6.7046   -2.6128 H         1 ATP         0.2048
@<TRIPOS>BOND
     1    1    2 2
     2    1    3 1
     3    1    4 1
     4    1    8 1
     5    5    6 2
     6    5    7 1
     7    5    8 1
     8    5   12 1
     9    9   10 2
    10    9   11 1
    11    9   12 1
    12    9   13 1
    13   13   14 1
    14   14   15 1
    15   14   32 1
    16   14   33 1
    17   15   16 1
    18   15   17 1
    19   15   34 1
    20   16   21 1
    21   17   18 1
    22   17   19 1
    23   17   35 1
    24   18   36 1
    25   19   20 1
    26   19   21 1
    27   19   37 1
    28   20   38 1
    29   21   22 1
    30   21   39 1
    31   22   23 ar
    32   22   31 ar
    33   23   24 ar
    34   23   40 1
    35   24   25 ar
    36   25   26 ar
    37   25   31 ar
    38   26   27 1
    39   26   28 ar
    40   27   41 1
    41   27   42 1
    42   28   29 ar
    43   28   44 1
    44   29   30 ar
    45   29   43 1
    46   30   31 ar
@<TRIPOS>SUBSTRUCTURE
     1 ATP         1 GROUP 0 A     ****
@<TRIPOS>MOLECULE
[[[5-(6-amino-1,8-dihydropurine-6,8-diylium-7-id-9-yl)-3,4-dihydroxy-tetrahydrofuran-2-yl]methoxy-oxido-phosphoryl]oxy-oxido-phosphoryl] phosphate
   44    46     1     0     0
SMALL
USER_CHARGES

@<TRIPOS>ATOM
      1 PG         -0.0150   -0.8184    7.7477 P.3       1 ATP        -1.1921
      2 O1G        -1.2522   -0.1578    8.3467 O.co2     1 ATP         0.3195
      3 O2G         0.8592   -1.5511    8.7599 O.co2     1 ATP         0.3195
      4 O3G         0.7593    0.0667    6.7766 O.co2     1 ATP         0.3195
      5 PB         -1.6280   -1.9312    5.5086 P.3       1 ATP        -1.1062
      6 O1B        -2.9861   -1.4692    5.9878 O.co2     1 ATP         0.3195
      7 O2B        -0.9158   -1.2264    4.3757 O.co2     1 ATP         0.3195
      8 O3B        -0.6194   -2.0179    6.7908 O.3       1 ATP         0.4672
      9 PA         -0.5242   -4.5704    4.7529 P.3       1 ATP        -1.1062
     10 O1A        -1.1630   -5.8854    4.3626 O.co2     1 ATP         0.3195
     11 O2A         0.5556   -4.5193    5.8118 O.co2     1 ATP         0.3195
     12 O3A        -1.7110   -3.5244    5.1619 O.3       1 ATP         0.4672
     13 O5'         0.0118   -3.8395    3.3916 O.3       1 ATP         0.1618
     14 C5'        -0.7840   -3.8935    2.2172 C.3       1 ATP         0.1504
     15 C4'        -0.0724   -3.1466    1.1027 C.3       1 ATP         0.1111
     16 O4'        -0.8674   -3.1929   -0.0945 O.3       1 ATP        -0.1436
     17 C3'         0.1338   -1.6715    1.4027 C.3       1 ATP         0.1111
     18 O3'         1.2893   -1.4445    2.1808 O.3       1 ATP        -0.2728
     19 C2'         0.2158   -1.0724    0.0128 C.3       1 ATP         0.1111
     20 O2'         1.5141   -1.2448   -0.5513 O.3       1 ATP        -0.2728
     21 C1'        -0.7897   -1.9176   -0.7583 C.3       1 ATP         0.2693
     22 N9         -2.1040   -1.3333   -0.7704 N.pl3     1 ATP        -0.3222
     23 C8         -3.2124   -1.5345    0.2719 C.ar      1 ATP         0.1640
     24 N7         -4.2964   -0.8234   -0.0828 N.2       1 ATP        -0.1640
     25 C5         -3.8754   -0.2386   -1.2478 C.ar      1 ATP         0.0820
     26 C6         -4.7432    0.6719   -2.0470 C.ar      1 ATP         0.1640
     27 N6         -5.9725    0.9415   -1.6366 N.pl3     1 ATP        -0.4916
     28 N1         -4.1703    1.1517   -3.1536 N.pl3     1 ATP        -0.4390
     29 C2         -2.8174    0.7994   -3.5215 C.ar      1 ATP         0.5691
     30 N3         -2.0475    0.0097   -2.8393 N.ar      1 ATP        -0.4283
     31 C4         -2.6278   -0.4836   -1.7071 C.ar      1 ATP         0.2226
     32 H5'1       -0.9348   -4.9415    1.9415 H         1 ATP        -0.0393
     33 H5'2       -1.7548   -3.4350    2.4278 H         1 ATP        -0.0393
     34 H4'         0.8871   -3.6466    0.8809 H         1 ATP        -0.0393
     35 H3'        -0.7370   -1.2334    1.9869 H         1 ATP        -0.0393
     36 HO3'        1.1625   -1.9325    3.0084 H         1 ATP         0.2010
     37 H2'        -0.0343   -0.0280    0.0196 H         1 ATP        -0.0393
     38 HO2'        2.1443   -0.7955    0.0378 H         1 ATP         0.2010
     39 H1'        -0.5175   -2.1046   -1.7826 H         1 ATP        -0.0393
     40 H8         -3.2310   -2.1319    1.1889 H         1 ATP         0.0000
     41 HN61       -6.3231    0.5316   -0.7829 H         1 ATP         0.2048
     42 HN62       -6.5628    1.5584   -2.1760 H         1 ATP         0.2048
     43 H2         -2.4822    1.2710   -4.4579 H         1 ATP        -0.1292
     44 H44        -4.7200    1.7780   -3.7346 H         1 ATP         0.2048
@<TRIPOS>BOND
     1    1    2 2
     2    1    3 1
     3    1    4 1
     4    1    8 1
     5    5    6 2
     6    5    7 1
     7    5    8 1
     8    5   12 1
     9    9   10 2
    10    9   11 1
    11    9   12 1
    12    9   13 1
    13   13   14 1
    14   14   15 1
    15   14   32 1
    16   14   33 1
    17   15   16 1
    18   15   17 1
    19   15   34 1
    20   16   21 1
    21   17   18 1
    22   17   19 1
    23   17   35 1
    24   18   36 1
    25   19   20 1
    26   19   21 1
    27   19   37 1
    28   20   38 1
    29   21   22 1
    30   21   39 1
    31   22   23 ar
    32   22   31 ar
    33   23   24 ar
    34   23   40 1
    35   24   25 ar
    36   25   26 ar
    37   25   31 ar
    38   26   27 1
    39   26   28 ar
    40   27   41 1
    41   27   42 1
    42   28   29 ar
    43   28   44 1
    44   29   30 ar
    45   29   43 1
    46   30   31 ar
@<TRIPOS>SUBSTRUCTURE
     1 ATP         1 GROUP 0 A     ****
@<TRIPOS>MOLECULE
[[[5-(6-amino-1,8-dihydropurine-6,8-diylium-7-id-9-yl)-3,4-dihydroxy-tetrahydrofuran-2-yl]methoxy-oxido-phosphoryl]oxy-oxido-phosphoryl] phosphate
   44    46     1     0     0
SMALL
USER_CHARGES

@<TRIPOS>ATOM
      1 PG          5.0144   -1.6664   -7.7175 P.3       1 ATP        -1.1921
      2 O1G         5.3540   -3.1196   -8.0316 O.co2     1 ATP         0.3195
      3 O2G         4.3556   -0.9117   -8.8674 O.co2     1 ATP         0.3195
      4 O3G         6.1343   -0.8974   -7.0243 O.co2     1 ATP         0.3195
      5 PB          3.8682   -2.4475   -5.0851 P.3       1 ATP        -1.1062
      6 O1B         4.0042   -3.9458   -5.2412 O.co2     1 ATP         0.3195
      7 O2B         4.8183   -1.6619   -4.2090 O.co2     1 ATP         0.3195
      8 O3B         3.8350   -1.7650   -6.5690 O.3       1 ATP         0.4672
      9 PA          1.5549   -2.4565   -3.2403 P.3       1 ATP        -1.1062
     10 O1A         1.6880   -3.9412   -2.9800 O.co2     1 ATP         0.3195
     11 O2A         0.1940   -1.7951   -3.2680 O.co2     1 ATP         0.3195
     12 O3A         2.3373   -2.1068   -4.6313 O.3       1 ATP         0.4672
     13 O5'         2.5245   -1.6648   -2.1878 O.3       1 ATP         0.1618
     14 C5'         2.2816   -0.2918   -1.9206 C.3       1 ATP         0.1504
     15 C4'         2.7248    0.0226   -0.4980 C.3       1 ATP         0.1111
     16 O4'         2.4697    1.4219   -0.2462 O.3       1 ATP        -0.1436
     17 C3'         1.9404   -0.7419    0.5596 C.3       1 ATP         0.1111
     18 O3'         2.7418   -0.8086    1.7389 O.3       1 ATP        -0.2728
     19 C2'         0.7477    0.1630    0.7858 C.3       1 ATP         0.1111
     20 O2'         0.1373   -0.0577    2.0407 O.3       1 ATP        -0.2728
     21 C1'         1.3733    1.5427    0.6747 C.3       1 ATP         0.2693
     22 N9          0.4520    2.5240    0.1767 N.pl3     1 ATP        -0.3222
     23 C8          0.5793    3.3338   -1.1209 C.ar      1 ATP         0.1640
     24 N7         -0.4807    4.1508   -1.2458 N.2       1 ATP        -0.1640
     25 C5         -1.1921    3.8572   -0.1126 C.ar      1 ATP         0.0820
     26 C6         -2.4855    4.5203    0.2163 C.ar      1 ATP         0.1640
     27 N6         -2.9873    5.4319   -0.6020 N.pl3     1 ATP        -0.4916
     28 N1         -3.0414    4.1119    1.3596 N.pl3     1 ATP        -0.4390
     29 C2         -2.4169    3.1071    2.1904 C.ar      1 ATP         0.5691
     30 N3         -1.2928    2.5191    1.9210 N.ar      1 ATP        -0.4283
     31 C4         -0.7202    2.9326    0.7534 C.ar      1 ATP         0.2226
     32 H5'1        2.8432    0.3119   -2.6398 H         1 ATP        -0.0393
     33 H5'2        1.2128   -0.0927   -2.0428 H         1 ATP        -0.0393
     34 H4'         3.8040   -0.1399   -0.4044 H         1 ATP        -0.0393
     35 H3'         1.6768   -1.7637    0.2732 H         1 ATP        -0.0393
     36 HO3'        3.5553   -1.2733    1.4913 H         1 ATP         0.2010
     37 H2'         0.0002   -0.0084   -0.0014 H         1 ATP        -0.0393
     38 HO2'       -0.1554   -0.9852    2.0577 H         1 ATP         0.2010
     39 H1'         1.7718    1.9211    1.6015 H         1 ATP        -0.0393
     40 H8          1.3565    3.3309   -1.8916 H         1 ATP         0.0000
     41 HN61       -2.4952    5.6785   -1.4487 H         1 ATP         0.2048
     42 HN62       -3.8637    5.8828   -0.3819 H         1 ATP         0.2048
     43 H2         -2.9911    2.8734    3.1000 H         1 ATP        -0.1292
     44 H44        -3.9253    4.5332    1.6302 H         1 ATP         0.2048
@<TRIPOS>BOND
     1    1    2 2
     2    1    3 1
     3    1    4 1
     4    1    8 1
     5    5    6 2
     6    5    7 1
     7    5    8 1
     8    5   12 1
     9    9   10 2
    10    9   11 1
    11    9   12 1
    12    9   13 1
    13   13   14 1
    14   14   15 1
    15   14   32 1
    16   14   33 1
    17   15   16 1
    18   15   17 1
    19   15   34 1
    20   16   21 1
    21   17   18 1
    22   17   19 1
    23   17   35 1
    24   18   36 1
    25   19   20 1
    26   19   21 1
    27   19   37 1
    28   20   38 1
    29   21   22 1
    30   21   39 1
    31   22   23 ar
    32   22   31 ar
    33   23   24 ar
    34   23   40 1
    35   24   25 ar
    36   25   26 ar
    37   25   31 ar
    38   26   27 1
    39   26   28 ar
    40   27   41 1
    41   27   42 1
    42   28   29 ar
    43   28   44 1
    44   29   30 ar
    45   29   43 1
    46   30   31 ar
@<TRIPOS>SUBSTRUCTURE
     1 ATP         1 GROUP 0 A     ****
@<TRIPOS>MOLECULE
[[[5-(6-amino-1,8-dihydropurine-6,8-diylium-7-id-9-yl)-3,4-dihydroxy-tetrahydrofuran-2-yl]methoxy-oxido-phosphoryl]oxy-oxido-phosphoryl] phosphate
   44    46     1     0     0
SMALL
USER_CHARGES

@<TRIPOS>ATOM
      1 PG          2.2684   -4.0743   -4.9545 P.3       1 ATP        -1.1921
      2 O1G         1.6124   -3.0433   -4.0419 O.co2     1 ATP         0.3195
      3 O2G         1.3471   -4.6380   -6.0311 O.co2     1 ATP         0.3195
      4 O3G         3.0906   -5.1279   -4.2197 O.co2     1 ATP         0.3195
      5 PB          4.6755   -2.3517   -5.2586 P.3       1 ATP        -1.1062
      6 O1B         5.5144   -3.2352   -4.3624 O.co2     1 ATP         0.3195
      7 O2B         5.2896   -1.6123   -6.4263 O.co2     1 ATP         0.3195
      8 O3B         3.3948   -3.2122   -5.7958 O.3       1 ATP         0.4672
      9 PA          4.4374   -0.0458   -3.4198 P.3       1 ATP        -1.1062
     10 O1A         5.0088    1.0040   -4.3477 O.co2     1 ATP         0.3195
     11 O2A         5.2690   -0.6154   -2.2910 O.co2     1 ATP         0.3195
     12 O3A         3.8693   -1.2796   -4.3279 O.3       1 ATP         0.4672
     13 O5'         3.0213    0.5153   -2.8245 O.3       1 ATP         0.1618
     14 C5'         2.2816   -0.2918   -1.9206 C.3       1 ATP         0.1504
     15 C4'         2.7248    0.0226   -0.4980 C.3       1 ATP         0.1111
     16 O4'         2.4697    1.4219   -0.2462 O.3       1 ATP        -0.1436
     17 C3'         1.9404   -0.7419    0.5596 C.3       1 ATP         0.1111
     18 O3'         2.7418   -0.8086    1.7389 O.3       1 ATP        -0.2728
     19 C2'         0.7477    0.1630    0.7858 C.3       1 ATP         0.1111
     20 O2'         0.1373   -0.0577    2.0407 O.3       1 ATP        -0.2728
     21 C1'         1.3733    1.5427    0.6747 C.3       1 ATP         0.2693
     22 N9          0.4520    2.5240    0.1767 N.pl3     1 ATP        -0.3222
     23 C8         -0.7463    2.2774   -0.7501 C.ar      1 ATP         0.1640
     24 N7         -1.3714    3.4419   -0.9948 N.2       1 ATP        -0.1640
     25 C5         -0.6104    4.3223   -0.2723 C.ar      1 ATP         0.0820
     26 C6         -0.9062    5.7820   -0.2194 C.ar      1 ATP         0.1640
     27 N6         -1.9385    6.2713   -0.8881 N.pl3     1 ATP        -0.4916
     28 N1         -0.0613    6.4906    0.5336 N.pl3     1 ATP        -0.4390
     29 C2          1.0416    5.8662    1.2291 C.ar      1 ATP         0.5691
     30 N3          1.3146    4.5989    1.1954 N.ar      1 ATP        -0.4283
     31 C4          0.4541    3.8697    0.4273 C.ar      1 ATP         0.2226
     32 H5'1        1.2163   -0.0770   -2.0471 H         1 ATP        -0.0393
     33 H5'2        2.4655   -1.3443   -2.1563 H         1 ATP        -0.0393
     34 H4'         3.8040   -0.1399   -0.4044 H         1 ATP        -0.0393
     35 H3'         1.6768   -1.7637    0.2732 H         1 ATP        -0.0393
     36 HO3'        2.2231   -1.2979    2.3952 H         1 ATP         0.2010
     37 H2'         0.0002   -0.0084   -0.0014 H         1 ATP        -0.0393
     38 HO2'       -0.6132    0.5577    2.1063 H         1 ATP         0.2010
     39 H1'         1.7718    1.9211    1.6015 H         1 ATP        -0.0393
     40 H8         -1.1244    1.3534   -1.1987 H         1 ATP         0.0000
     41 HN61       -2.5259    5.6573   -1.4336 H         1 ATP         0.2048
     42 HN62       -2.1416    7.2600   -0.8539 H         1 ATP         0.2048
     43 H2          1.6509    6.5764    1.8088 H         1 ATP        -0.1292
     44 H44        -0.2190    7.4917    0.6033 H         1 ATP         0.2048
@<TRIPOS>BOND
     1    1    2 2
     2    1    3 1
     3    1    4 1
     4    1    8 1
     5    5    6 2
     6    5    7 1
     7    5    8 1
     8    5   12 1
     9    9   10 2
    10    9   11 1
    11    9   12 1
    12    9   13 1
    13   13   14 1
    14   14   15 1
    15   14   32 1
    16   14   33 1
    17   15   16 1
    18   15   17 1
    19   15   34 1
    20   16   21 1
    21   17   18 1
    22   17   19 1
    23   17   35 1
    24   18   36 1
    25   19   20 1
    26   19   21 1
    27   19   37 1
    28   20   38 1
    29   21   22 1
    30   21   39 1
    31   22   23 ar
    32   22   31 ar
    33   23   24 ar
    34   23   40 1
    35   24   25 ar
    36   25   26 ar
    37   25   31 ar
    38   26   27 1
    39   26   28 ar
    40   27   41 1
    41   27   42 1
    42   28   29 ar
    43   28   44 1
    44   29   30 ar
    45   29   43 1
    46   30   31 ar
@<TRIPOS>SUBSTRUCTURE
     1 ATP         1 GROUP 0 A     ****
@<TRIPOS>MOLECULE
[[[5-(6-amino-1,8-dihydropurine-6,8-diylium-7-id-9-yl)-3,4-dihydroxy-tetrahydrofuran-2-yl]methoxy-oxido-phosphoryl]oxy-oxido-phosphoryl] phosphate
   44    46     1     0     0
SMALL
USER_CHARGES

@<TRIPOS>ATOM
      1 PG          2.1899   -0.7014   -7.3537 P.3       1 ATP        -1.1921
      2 O1G         1.4656   -1.1133   -6.0764 O.co2     1 ATP         0.3195
      3 O2G         1.4417    0.3246   -8.1981 O.co2     1 ATP         0.3195
      4 O3G         2.7664   -1.8672   -8.1503 O.co2     1 ATP         0.3195
      5 PB          4.7502   -0.4000   -5.8677 P.3       1 ATP        -1.1062
      6 O1B         5.3274   -1.6694   -6.4534 O.co2     1 ATP         0.3195
      7 O2B         5.6333    0.7827   -5.5383 O.co2     1 ATP         0.3195
      8 O3B         3.5238    0.1083   -6.8198 O.3       1 ATP         0.4672
      9 PA          4.3707   -1.3841   -3.1032 P.3       1 ATP        -1.1062
     10 O1A         5.1937   -0.3243   -2.4037 O.co2     1 ATP         0.3195
     11 O2A         4.9240   -2.7760   -3.3185 O.co2     1 ATP         0.3195
     12 O3A         3.8790   -0.7859   -4.5419 O.3       1 ATP         0.4672
     13 O5'         2.9216   -1.4836   -2.3516 O.3       1 ATP         0.1618
     14 C5'         2.2816   -0.2918   -1.9206 C.3       1 ATP         0.1504
     15 C4'         2.7248    0.0226   -0.4980 C.3       1 ATP         0.1111
     16 O4'         2.4697    1.4219   -0.2462 O.3       1 ATP        -0.1436
     17 C3'         1.9404   -0.7419    0.5596 C.3       1 ATP         0.1111
     18 O3'         2.7418   -0.8086    1.7389 O.3       1 ATP        -0.2728
     19 C2'         0.7477    0.1630    0.7858 C.3       1 ATP         0.1111
     20 O2'         0.1373   -0.0577    2.0407 O.3       1 ATP        -0.2728
     21 C1'         1.3733    1.5427    0.6747 C.3       1 ATP         0.2693
     22 N9          0.4520    2.5240    0.1767 N.pl3     1 ATP        -0.3222
     23 C8         -0.3054    2.4845   -1.1576 C.ar      1 ATP         0.1640
     24 N7         -1.0755    3.5806   -1.2691 N.2       1 ATP        -0.1640
     25 C5         -0.8043    4.2306   -0.0942 C.ar      1 ATP         0.0820
     26 C6         -1.4324    5.5335    0.2646 C.ar      1 ATP         0.1640
     27 N6         -2.2885    6.1054   -0.5675 N.pl3     1 ATP        -0.4916
     28 N1         -1.0537    6.0229    1.4478 N.pl3     1 ATP        -0.4390
     29 C2         -0.1096    5.3242    2.2908 C.ar      1 ATP         0.5691
     30 N3          0.4468    4.1904    1.9960 N.ar      1 ATP        -0.4283
     31 C4          0.0631    3.6855    0.7877 C.ar      1 ATP         0.2226
     32 H5'1        2.5589    0.5217   -2.5976 H         1 ATP        -0.0393
     33 H5'2        1.1982   -0.4388   -1.9617 H         1 ATP        -0.0393
     34 H4'         3.8040   -0.1399   -0.4044 H         1 ATP        -0.0393
     35 H3'         1.6768   -1.7637    0.2732 H         1 ATP        -0.0393
     36 HO3'        3.5553   -1.2733    1.4913 H         1 ATP         0.2010
     37 H2'         0.0002   -0.0084   -0.0014 H         1 ATP        -0.0393
     38 HO2'        0.8091    0.1203    2.7213 H         1 ATP         0.2010
     39 H1'         1.7718    1.9211    1.6015 H         1 ATP        -0.0393
     40 H8         -0.2991    1.7413   -1.9611 H         1 ATP         0.0000
     41 HN61       -2.5167    5.6603   -1.4447 H         1 ATP         0.2048
     42 HN62       -2.7159    6.9882   -0.3270 H         1 ATP         0.2048
     43 H2          0.1059    5.8491    3.2340 H         1 ATP        -0.1292
     44 H44        -1.4532    6.9099    1.7401 H         1 ATP         0.2048
@<TRIPOS>BOND
     1    1    2 2
     2    1    3 1
     3    1    4 1
     4    1    8 1
     5    5    6 2
     6    5    7 1
     7    5    8 1
     8    5   12 1
     9    9   10 2
    10    9   11 1
    11    9   12 1
    12    9   13 1
    13   13   14 1
    14   14   15 1
    15   14   32 1
    16   14   33 1
    17   15   16 1
    18   15   17 1
    19   15   34 1
    20   16   21 1
    21   17   18 1
    22   17   19 1
    23   17   35 1
    24   18   36 1
    25   19   20 1
    26   19   21 1
    27   19   37 1
    28   20   38 1
    29   21   22 1
    30   21   39 1
    31   22   23 ar
    32   22   31 ar
    33   23   24 ar
    34   23   40 1
    35   24   25 ar
    36   25   26 ar
    37   25   31 ar
    38   26   27 1
    39   26   28 ar
    40   27   41 1
    41   27   42 1
    42   28   29 ar
    43   28   44 1
    44   29   30 ar
    45   29   43 1
    46   30   31 ar
@<TRIPOS>SUBSTRUCTURE
     1 ATP         1 GROUP 0 A     ****
@<TRIPOS>MOLECULE
[[[5-(6-amino-1,8-dihydropurine-6,8-diylium-7-id-9-yl)-3,4-dihydroxy-tetrahydrofuran-2-yl]methoxy-oxido-phosphoryl]oxy-oxido-phosphoryl] phosphate
   44    46     1     0     0
SMALL
USER_CHARGES

@<TRIPOS>ATOM
      1 PG          2.1196   -2.1124   -8.2152 P.3       1 ATP        -1.1921
      2 O1G         2.8461   -1.2458   -9.2384 O.co2     1 ATP         0.3195
      3 O2G         2.3336   -3.6115   -8.3952 O.co2     1 ATP         0.3195
      4 O3G         0.6680   -1.7119   -7.9734 O.co2     1 ATP         0.3195
      5 PB          3.0180   -0.3416   -5.9990 P.3       1 ATP        -1.1062
      6 O1B         3.8983    0.5765   -6.8172 O.co2     1 ATP         0.3195
      7 O2B         1.6512    0.1004   -5.5258 O.co2     1 ATP         0.3195
      8 O3B         2.8669   -1.7650   -6.7866 O.3       1 ATP         0.4672
      9 PA          4.4374   -0.0458   -3.4198 P.3       1 ATP        -1.1062
     10 O1A         5.2386    1.1346   -3.9241 O.co2     1 ATP         0.3195
     11 O2A         5.0418   -1.0293   -2.4412 O.co2     1 ATP         0.3195
     12 O3A         3.8702   -0.8709   -4.7110 O.3       1 ATP         0.4672
     13 O5'         3.0213    0.5153   -2.8245 O.3       1 ATP         0.1618
     14 C5'         2.2816   -0.2918   -1.9206 C.3       1 ATP         0.1504
     15 C4'         2.7248    0.0226   -0.4980 C.3       1 ATP         0.1111
     16 O4'         2.4697    1.4219   -0.2462 O.3       1 ATP        -0.1436
     17 C3'         1.9404   -0.7419    0.5596 C.3       1 ATP         0.1111
     18 O3'         2.7418   -0.8086    1.7389 O.3       1 ATP        -0.2728
     19 C2'         0.7477    0.1630    0.7858 C.3       1 ATP         0.1111
     20 O2'         0.1373   -0.0577    2.0407 O.3       1 ATP        -0.2728
     21 C1'         1.3733    1.5427    0.6747 C.3       1 ATP         0.2693
     22 N9          0.4520    2.5240    0.1767 N.pl3     1 ATP        -0.3222
     23 C8         -1.0660    2.5608    0.3999 C.ar      1 ATP         0.1640
     24 N7         -1.5852    3.6333   -0.2221 N.2       1 ATP        -0.1640
     25 C5         -0.4682    4.1996   -0.7771 C.ar      1 ATP         0.0820
     26 C6         -0.5216    5.4476   -1.5899 C.ar      1 ATP         0.1640
     27 N6         -1.6813    6.0510   -1.7982 N.pl3     1 ATP        -0.4916
     28 N1          0.6621    5.8575   -2.0523 N.pl3     1 ATP        -0.4390
     29 C2          1.8795    5.1301   -1.7717 C.ar      1 ATP         0.5691
     30 N3          1.9458    4.0434   -1.0670 N.ar      1 ATP        -0.4283
     31 C4          0.7388    3.6199   -0.5917 C.ar      1 ATP         0.2226
     32 H5'1        1.2163   -0.0770   -2.0471 H         1 ATP        -0.0393
     33 H5'2        2.4655   -1.3443   -2.1563 H         1 ATP        -0.0393
     34 H4'         3.8040   -0.1399   -0.4044 H         1 ATP        -0.0393
     35 H3'         1.6768   -1.7637    0.2732 H         1 ATP        -0.0393
     36 HO3'        2.2231   -1.2979    2.3952 H         1 ATP         0.2010
     37 H2'         0.0002   -0.0084   -0.0014 H         1 ATP        -0.0393
     38 HO2'       -0.1554   -0.9852    2.0577 H         1 ATP         0.2010
     39 H1'         1.7718    1.9211    1.6015 H         1 ATP        -0.0393
     40 H8         -1.7235    1.8833    0.9537 H         1 ATP         0.0000
     41 HN61       -2.5296    5.6672   -1.4072 H         1 ATP         0.2048
     42 HN62       -1.7205    6.8969   -2.3483 H         1 ATP         0.2048
     43 H2          2.7750    5.5878   -2.2190 H         1 ATP        -0.1292
     44 H44         0.6808    6.7046   -2.6128 H         1 ATP         0.2048
@<TRIPOS>BOND
     1    1    2 2
     2    1    3 1
     3    1    4 1
     4    1    8 1
     5    5    6 2
     6    5    7 1
     7    5    8 1
     8    5   12 1
     9    9   10 2
    10    9   11 1
    11    9   12 1
    12    9   13 1
    13   13   14 1
    14   14   15 1
    15   14   32 1
    16   14   33 1
    17   15   16 1
    18   15   17 1
    19   15   34 1
    20   16   21 1
    21   17   18 1
    22   17   19 1
    23   17   35 1
    24   18   36 1
    25   19   20 1
    26   19   21 1
    27   19   37 1
    28   20   38 1
    29   21   22 1
    30   21   39 1
    31   22   23 ar
    32   22   31 ar
    33   23   24 ar
    34   23   40 1
    35   24   25 ar
    36   25   26 ar
    37   25   31 ar
    38   26   27 1
    39   26   28 ar
    40   27   41 1
    41   27   42 1
    42   28   29 ar
    43   28   44 1
    44   29   30 ar
    45   29   43 1
    46   30   31 ar
@<TRIPOS>SUBSTRUCTURE
     1 ATP         1 GROUP 0 A     ****
@<TRIPOS>MOLECULE
[[[5-(6-amino-1,8-dihydropurine-6,8-diylium-7-id-9-yl)-3,4-dihydroxy-tetrahydrofuran-2-yl]methoxy-oxido-phosphoryl]oxy-oxido-phosphoryl] phosphate
   44    46     1     0     0
SMALL
USER_CHARGES

@<TRIPOS>ATOM
      1 PG          3.0156   -4.7146   -5.8217 P.3       1 ATP        -1.1921
      2 O1G         3.9081   -4.8082   -4.5886 O.co2     1 ATP         0.3195
      3 O2G         1.9482   -5.8002   -5.9095 O.co2     1 ATP         0.3195
      4 O3G         3.7709   -4.4725   -7.1244 O.co2     1 ATP         0.3195
      5 PB          2.6834   -1.7845   -5.4243 P.3       1 ATP        -1.1062
      6 O1B         3.5970   -1.4472   -6.5816 O.co2     1 ATP         0.3195
      7 O2B         1.5032   -0.9052   -5.0761 O.co2     1 ATP         0.3195
      8 O3B         2.1603   -3.3224   -5.5981 O.3       1 ATP         0.4672
      9 PA          4.4792   -0.9077   -3.2423 P.3       1 ATP        -1.1062
     10 O1A         5.4086   -0.2021   -4.2056 O.co2     1 ATP         0.3195
     11 O2A         5.0196   -1.5815   -1.9997 O.co2     1 ATP         0.3195
     12 O3A         3.5930   -1.9917   -4.0845 O.3       1 ATP         0.4672
     13 O5'         3.2903    0.1346   -2.8241 O.3       1 ATP         0.1618
     14 C5'         2.2816   -0.2918   -1.9206 C.3       1 ATP         0.1504
     15 C4'         2.7248    0.0226   -0.4980 C.3       1 ATP         0.1111
     16 O4'         2.4697    1.4219   -0.2462 O.3       1 ATP        -0.1436
     17 C3'         1.9404   -0.7419    0.5596 C.3       1 ATP         0.1111
     18 O3'         2.7418   -0.8086    1.7389 O.3       1 ATP        -0.2728
     19 C2'         0.7477    0.1630    0.7858 C.3       1 ATP         0.1111
     20 O2'         0.1373   -0.0577    2.0407 O.3       1 ATP        -0.2728
     21 C1'         1.3733    1.5427    0.6747 C.3       1 ATP         0.2693
     22 N9          0.4520    2.5240    0.1767 N.pl3     1 ATP        -0.3222
     23 C8         -0.7463    2.2774   -0.7501 C.ar      1 ATP         0.1640
     24 N7         -1.3714    3.4419   -0.9948 N.2       1 ATP        -0.1640
     25 C5         -0.6104    4.3223   -0.2723 C.ar      1 ATP         0.0820
     26 C6         -0.9062    5.7820   -0.2194 C.ar      1 ATP         0.1640
     27 N6         -1.9385    6.2713   -0.8881 N.pl3     1 ATP        -0.4916
     28 N1         -0.0613    6.4906    0.5336 N.pl3     1 ATP        -0.4390
     29 C2          1.0416    5.8662    1.2291 C.ar      1 ATP         0.5691
     30 N3          1.3146    4.5989    1.1954 N.ar      1 ATP        -0.4283
     31 C4          0.4541    3.8697    0.4273 C.ar      1 ATP         0.2226
     32 H5'1        1.3514    0.2330   -2.1577 H         1 ATP        -0.0393
     33 H5'2        2.1280   -1.3678   -2.0460 H         1 ATP        -0.0393
     34 H4'         3.8040   -0.1399   -0.4044 H         1 ATP        -0.0393
     35 H3'         1.6768   -1.7637    0.2732 H         1 ATP        -0.0393
     36 HO3'        2.2231   -1.2979    2.3952 H         1 ATP         0.2010
     37 H2'         0.0002   -0.0084   -0.0014 H         1 ATP        -0.0393
     38 HO2'       -0.6132    0.5577    2.1063 H         1 ATP         0.2010
     39 H1'         1.7718    1.9211    1.6015 H         1 ATP        -0.0393
     40 H8         -1.1244    1.3534   -1.1987 H         1 ATP         0.0000
     41 HN61       -2.5259    5.6573   -1.4336 H         1 ATP         0.2048
     42 HN62       -2.1416    7.2600   -0.8539 H         1 ATP         0.2048
     43 H2          1.6509    6.5764    1.8088 H         1 ATP        -0.1292
     44 H44        -0.2190    7.4917    0.6033 H         1 ATP         0.2048
@<TRIPOS>BOND
     1    1    2 2
     2    1    3 1
     3    1    4 1
     4    1    8 1
     5    5    6 2
     6    5    7 1
     7    5    8 1
     8    5   12 1
     9    9   10 2
    10    9   11 1
    11    9   12 1
    12    9   13 1
    13   13   14 1
    14   14   15 1
    15   14   32 1
    16   14   33 1
    17   15   16 1
    18   15   17 1
    19   15   34 1
    20   16   21 1
    21   17   18 1
    22   17   19 1
    23   17   35 1
    24   18   36 1
    25   19   20 1
    26   19   21 1
    27   19   37 1
    28   20   38 1
    29   21   22 1
    30   21   39 1
    31   22   23 ar
    32   22   31 ar
    33   23   24 ar
    34   23   40 1
    35   24   25 ar
    36   25   26 ar
    37   25   31 ar
    38   26   27 1
    39   26   28 ar
    40   27   41 1
    41   27   42 1
    42   28   29 ar
    43   28   44 1
    44   29   30 ar
    45   29   43 1
    46   30   31 ar
@<TRIPOS>SUBSTRUCTURE
     1 ATP         1 GROUP 0 A     ****
@<TRIPOS>MOLECULE
[[[5-(6-amino-1,8-dihydropurine-6,8-diylium-7-id-9-yl)-3,4-dihydroxy-tetrahydrofuran-2-yl]methoxy-oxido-phosphoryl]oxy-oxido-phosphoryl] phosphate
   44    46     1     0     0
SMALL
USER_CHARGES

@<TRIPOS>ATOM
      1 PG          0.8218   -2.4474   -7.6372 P.3       1 ATP        -1.1921
      2 O1G         1.4881   -3.6577   -6.9914 O.co2     1 ATP         0.3195
      3 O2G        -0.6827   -2.5917   -7.8408 O.co2     1 ATP         0.3195
      4 O3G         1.5670   -1.8937   -8.8471 O.co2     1 ATP         0.3195
      5 PB          2.3023   -0.6025   -5.8321 P.3       1 ATP        -1.1062
      6 O1B         2.9795   -1.6526   -4.9798 O.co2     1 ATP         0.3195
      7 O2B         3.0654    0.1538   -6.8965 O.co2     1 ATP         0.3195
      8 O3B         0.9652   -1.2549   -6.5070 O.3       1 ATP         0.4672
      9 PA          2.2228    1.5519   -3.8055 P.3       1 ATP        -1.1062
     10 O1A         1.1005    2.1840   -3.0113 O.co2     1 ATP         0.3195
     11 O2A         3.2207    2.4102   -4.5520 O.co2     1 ATP         0.3195
     12 O3A         1.5712    0.4761   -4.8485 O.3       1 ATP         0.4672
     13 O5'         3.0213    0.5153   -2.8245 O.3       1 ATP         0.1618
     14 C5'         2.2816   -0.2918   -1.9206 C.3       1 ATP         0.1504
     15 C4'         2.7248    0.0226   -0.4980 C.3       1 ATP         0.1111
     16 O4'         2.4697    1.4219   -0.2462 O.3       1 ATP        -0.1436
     17 C3'         1.9404   -0.7419    0.5596 C.3       1 ATP         0.1111
     18 O3'         2.7418   -0.8086    1.7389 O.3       1 ATP        -0.2728
     19 C2'         0.7477    0.1630    0.7858 C.3       1 ATP         0.1111
     20 O2'         0.1373   -0.0577    2.0407 O.3       1 ATP        -0.2728
     21 C1'         1.3733    1.5427    0.6747 C.3       1 ATP         0.2693
     22 N9          0.4520    2.5240    0.1767 N.pl3     1 ATP        -0.3222
     23 C8         -0.7463    2.2774   -0.7501 C.ar      1 ATP         0.1640
     24 N7         -1.3714    3.4419   -0.9948 N.2       1 ATP        -0.1640
     25 C5         -0.6104    4.3223   -0.2723 C.ar      1 ATP         0.0820
     26 C6         -0.9062    5.7820   -0.2194 C.ar      1 ATP         0.1640
     27 N6         -1.9385    6.2713   -0.8881 N.pl3     1 ATP        -0.4916
     28 N1         -0.0613    6.4906    0.5336 N.pl3     1 ATP        -0.4390
     29 C2          1.0416    5.8662    1.2291 C.ar      1 ATP         0.5691
     30 N3          1.3146    4.5989    1.1954 N.ar      1 ATP        -0.4283
     31 C4          0.4541    3.8697    0.4273 C.ar      1 ATP         0.2226
     32 H5'1        1.2163   -0.0770   -2.0471 H         1 ATP        -0.0393
     33 H5'2        2.4655   -1.3443   -2.1563 H         1 ATP        -0.0393
     34 H4'         3.8040   -0.1399   -0.4044 H         1 ATP        -0.0393
     35 H3'         1.6768   -1.7637    0.2732 H         1 ATP        -0.0393
     36 HO3'        3.5553   -1.2733    1.4913 H         1 ATP         0.2010
     37 H2'         0.0002   -0.0084   -0.0014 H         1 ATP        -0.0393
     38 HO2'       -0.6132    0.5577    2.1063 H         1 ATP         0.2010
     39 H1'         1.7718    1.9211    1.6015 H         1 ATP        -0.0393
     40 H8         -1.1244    1.3534   -1.1987 H         1 ATP         0.0000
     41 HN61       -2.5259    5.6573   -1.4336 H         1 ATP         0.2048
     42 HN62       -2.1416    7.2600   -0.8539 H         1 ATP         0.2048
     43 H2          1.6509    6.5764    1.8088 H         1 ATP        -0.1292
     44 H44        -0.2190    7.4917    0.6033 H         1 ATP         0.2048
@<TRIPOS>BOND
     1    1    2 2
     2    1    3 1
     3    1    4 1
     4    1    8 1
     5    5    6 2
     6    5    7 1
     7    5    8 1
     8    5   12 1
     9    9   10 2
    10    9   11 1
    11    9   12 1
    12    9   13 1
    13   13   14 1
    14   14   15 1
    15   14   32 1
    16   14   33 1
    17   15   16 1
    18   15   17 1
    19   15   34 1
    20   16   21 1
    21   17   18 1
    22   17   19 1
    23   17   35 1
    24   18   36 1
    25   19   20 1
    26   19   21 1
    27   19   37 1
    28   20   38 1
    29   21   22 1
    30   21   39 1
    31   22   23 ar
    32   22   31 ar
    33   23   24 ar
    34   23   40 1
    35   24   25 ar
    36   25   26 ar
    37   25   31 ar
    38   26   27 1
    39   26   28 ar
    40   27   41 1
    41   27   42 1
    42   28   29 ar
    43   28   44 1
    44   29   30 ar
    45   29   43 1
    46   30   31 ar
@<TRIPOS>SUBSTRUCTURE
     1 ATP         1 GROUP 0 A     ****
@<TRIPOS>MOLECULE
[[[5-(6-amino-1,8-dihydropurine-6,8-diylium-7-id-9-yl)-3,4-dihydroxy-tetrahydrofuran-2-yl]methoxy-oxido-phosphoryl]oxy-oxido-phosphoryl] phosphate
   44    46     1     0     0
SMALL
USER_CHARGES

@<TRIPOS>ATOM
      1 PG         -1.9356    2.5309   -5.6880 P.3       1 ATP        -1.1921
      2 O1G        -1.5278    2.8806   -7.1153 O.co2     1 ATP         0.3195
      3 O2G        -2.8594    1.3227   -5.5758 O.co2     1 ATP         0.3195
      4 O3G        -2.3673    3.7290   -4.8488 O.co2     1 ATP         0.3195
      5 PB          0.8726    2.8387   -4.7537 P.3       1 ATP        -1.1062
      6 O1B         1.5091    3.0882   -6.1029 O.co2     1 ATP         0.3195
      7 O2B         0.6387    3.9694   -3.7769 O.co2     1 ATP         0.3195
      8 O3B        -0.5330    2.0361   -4.9755 O.3       1 ATP         0.4672
      9 PA          3.2351    1.6560   -3.4214 P.3       1 ATP        -1.1062
     10 O1A         3.3085    2.6225   -2.2594 O.co2     1 ATP         0.3195
     11 O2A         4.1915    1.7751   -4.5880 O.co2     1 ATP         0.3195
     12 O3A         1.7049    1.6571   -3.9944 O.3       1 ATP         0.4672
     13 O5'         3.2903    0.1346   -2.8241 O.3       1 ATP         0.1618
     14 C5'         2.2816   -0.2918   -1.9206 C.3       1 ATP         0.1504
     15 C4'         2.7248    0.0226   -0.4980 C.3       1 ATP         0.1111
     16 O4'         2.4697    1.4219   -0.2462 O.3       1 ATP        -0.1436
     17 C3'         1.9404   -0.7419    0.5596 C.3       1 ATP         0.1111
     18 O3'         2.7418   -0.8086    1.7389 O.3       1 ATP        -0.2728
     19 C2'         0.7477    0.1630    0.7858 C.3       1 ATP         0.1111
     20 O2'         0.1373   -0.0577    2.0407 O.3       1 ATP        -0.2728
     21 C1'         1.3733    1.5427    0.6747 C.3       1 ATP         0.2693
     22 N9          0.4520    2.5240    0.1767 N.pl3     1 ATP        -0.3222
     23 C8         -0.3054    2.4845   -1.1576 C.ar      1 ATP         0.1640
     24 N7         -1.0755    3.5806   -1.2691 N.2       1 ATP        -0.1640
     25 C5         -0.8043    4.2306   -0.0942 C.ar      1 ATP         0.0820
     26 C6         -1.4324    5.5335    0.2646 C.ar      1 ATP         0.1640
     27 N6         -2.2885    6.1054   -0.5675 N.pl3     1 ATP        -0.4916
     28 N1         -1.0537    6.0229    1.4478 N.pl3     1 ATP        -0.4390
     29 C2         -0.1096    5.3242    2.2908 C.ar      1 ATP         0.5691
     30 N3          0.4468    4.1904    1.9960 N.ar      1 ATP        -0.4283
     31 C4          0.0631    3.6855    0.7877 C.ar      1 ATP         0.2226
     32 H5'1        1.3514    0.2330   -2.1577 H         1 ATP        -0.0393
     33 H5'2        2.1280   -1.3678   -2.0460 H         1 ATP        -0.0393
     34 H4'         3.8040   -0.1399   -0.4044 H         1 ATP        -0.0393
     35 H3'         1.6768   -1.7637    0.2732 H         1 ATP        -0.0393
     36 HO3'        2.2231   -1.2979    2.3952 H         1 ATP         0.2010
     37 H2'         0.0002   -0.0084   -0.0014 H         1 ATP        -0.0393
     38 HO2'       -0.6132    0.5577    2.1063 H         1 ATP         0.2010
     39 H1'         1.7718    1.9211    1.6015 H         1 ATP        -0.0393
     40 H8         -0.2991    1.7413   -1.9611 H         1 ATP         0.0000
     41 HN61       -2.5167    5.6603   -1.4447 H         1 ATP         0.2048
     42 HN62       -2.7159    6.9882   -0.3270 H         1 ATP         0.2048
     43 H2          0.1059    5.8491    3.2340 H         1 ATP        -0.1292
     44 H44        -1.4532    6.9099    1.7401 H         1 ATP         0.2048
@<TRIPOS>BOND
     1    1    2 2
     2    1    3 1
     3    1    4 1
     4    1    8 1
     5    5    6 2
     6    5    7 1
     7    5    8 1
     8    5   12 1
     9    9   10 2
    10    9   11 1
    11    9   12 1
    12    9   13 1
    13   13   14 1
    14   14   15 1
    15   14   32 1
    16   14   33 1
    17   15   16 1
    18   15   17 1
    19   15   34 1
    20   16   21 1
    21   17   18 1
    22   17   19 1
    23   17   35 1
    24   18   36 1
    25   19   20 1
    26   19   21 1
    27   19   37 1
    28   20   38 1
    29   21   22 1
    30   21   39 1
    31   22   23 ar
    32   22   31 ar
    33   23   24 ar
    34   23   40 1
    35   24   25 ar
    36   25   26 ar
    37   25   31 ar
    38   26   27 1
    39   26   28 ar
    40   27   41 1
    41   27   42 1
    42   28   29 ar
    43   28   44 1
    44   29   30 ar
    45   29   43 1
    46   30   31 ar
@<TRIPOS>SUBSTRUCTURE
     1 ATP         1 GROUP 0 A     ****
@<TRIPOS>MOLECULE
[[[5-(6-amino-1,8-dihydropurine-6,8-diylium-7-id-9-yl)-3,4-dihydroxy-tetrahydrofuran-2-yl]methoxy-oxido-phosphoryl]oxy-oxido-phosphoryl] phosphate
   44    46     1     0     0
SMALL
USER_CHARGES

@<TRIPOS>ATOM
      1 PG         -0.2304   -5.0746    1.9408 P.3       1 ATP        -1.1921
      2 O1G         0.3265   -6.4889    1.8174 O.co2     1 ATP         0.3195
      3 O2G         0.1734   -4.3488    3.2198 O.co2     1 ATP         0.3195
      4 O3G        -1.7100   -4.9515    1.5917 O.co2     1 ATP         0.3195
      5 PB          0.5237   -4.4751   -0.8745 P.3       1 ATP        -1.1062
      6 O1B         1.2354   -5.7754   -1.1751 O.co2     1 ATP         0.3195
      7 O2B        -0.8668   -4.2029   -1.4034 O.co2     1 ATP         0.3195
      8 O3B         0.5282   -4.2344    0.7414 O.3       1 ATP         0.4672
      9 PA          2.0071   -2.7689   -2.7832 P.3       1 ATP        -1.1062
     10 O1A         0.8123   -2.2592   -3.5593 O.co2     1 ATP         0.3195
     11 O2A         2.8964   -3.8514   -3.3555 O.co2     1 ATP         0.3195
     12 O3A         1.4968   -3.2362   -1.3031 O.3       1 ATP         0.4672
     13 O5'         2.9216   -1.4836   -2.3516 O.3       1 ATP         0.1618
     14 C5'         2.2816   -0.2918   -1.9206 C.3       1 ATP         0.1504
     15 C4'         2.7248    0.0226   -0.4980 C.3       1 ATP         0.1111
     16 O4'         2.4697    1.4219   -0.2462 O.3       1 ATP        -0.1436
     17 C3'         1.9404   -0.7419    0.5596 C.3       1 ATP         0.1111
     18 O3'         2.7418   -0.8086    1.7389 O.3       1 ATP        -0.2728
     19 C2'         0.7477    0.1630    0.7858 C.3       1 ATP         0.1111
     20 O2'         0.1373   -0.0577    2.0407 O.3       1 ATP        -0.2728
     21 C1'         1.3733    1.5427    0.6747 C.3       1 ATP         0.2693
     22 N9          0.4520    2.5240    0.1767 N.pl3     1 ATP        -0.3222
     23 C8          0.1798    2.8712   -1.2933 C.ar      1 ATP         0.1640
     24 N7         -0.7494    3.8400   -1.3610 N.2       1 ATP        -0.1640
     25 C5         -1.0173    4.0603   -0.0358 C.ar      1 ATP         0.0820
     26 C6         -2.0105    5.0717    0.4241 C.ar      1 ATP         0.1640
     27 N6         -2.6723    5.7982   -0.4628 N.pl3     1 ATP        -0.4916
     28 N1         -2.1445    5.1522    1.7502 N.pl3     1 ATP        -0.4390
     29 C2         -1.3755    4.3143    2.6427 C.ar      1 ATP         0.5691
     30 N3         -0.5075    3.4292    2.2616 N.ar      1 ATP        -0.4283
     31 C4         -0.3667    3.3425    0.9070 C.ar      1 ATP         0.2226
     32 H5'1        2.5589    0.5217   -2.5976 H         1 ATP        -0.0393
     33 H5'2        1.1982   -0.4388   -1.9617 H         1 ATP        -0.0393
     34 H4'         3.8040   -0.1399   -0.4044 H         1 ATP        -0.0393
     35 H3'         1.6768   -1.7637    0.2732 H         1 ATP        -0.0393
     36 HO3'        2.2231   -1.2979    2.3952 H         1 ATP         0.2010
     37 H2'         0.0002   -0.0084   -0.0014 H         1 ATP        -0.0393
     38 HO2'       -0.1554   -0.9852    2.0577 H         1 ATP         0.2010
     39 H1'         1.7718    1.9211    1.6015 H         1 ATP        -0.0393
     40 H8          0.6089    2.4651   -2.2147 H         1 ATP         0.0000
     41 HN61       -2.5055    5.6680   -1.4503 H         1 ATP         0.2048
     42 HN62       -3.3462    6.4841   -0.1542 H         1 ATP         0.2048
     43 H2         -1.5932    4.4937    3.7066 H         1 ATP        -0.1292
     44 H44        -2.8098    5.8270    2.1160 H         1 ATP         0.2048
@<TRIPOS>BOND
     1    1    2 2
     2    1    3 1
     3    1    4 1
     4    1    8 1
     5    5    6 2
     6    5    7 1
     7    5    8 1
     8    5   12 1
     9    9   10 2
    10    9   11 1
    11    9   12 1
    12    9   13 1
    13   13   14 1
    14   14   15 1
    15   14   32 1
    16   14   33 1
    17   15   16 1
    18   15   17 1
    19   15   34 1
    20   16   21 1
    21   17   18 1
    22   17   19 1
    23   17   35 1
    24   18   36 1
    25   19   20 1
    26   19   21 1
    27   19   37 1
    28   20   38 1
    29   21   22 1
    30   21   39 1
    31   22   23 ar
    32   22   31 ar
    33   23   24 ar
    34   23   40 1
    35   24   25 ar
    36   25   26 ar
    37   25   31 ar
    38   26   27 1
    39   26   28 ar
    40   27   41 1
    41   27   42 1
    42   28   29 ar
    43   28   44 1
    44   29   30 ar
    45   29   43 1
    46   30   31 ar
@<TRIPOS>SUBSTRUCTURE
     1 ATP         1 GROUP 0 A     ****
@<TRIPOS>MOLECULE
[[[5-(6-amino-1,8-dihydropurine-6,8-diylium-7-id-9-yl)-3,4-dihydroxy-tetrahydrofuran-2-yl]methoxy-oxido-phosphoryl]oxy-oxido-phosphoryl] phosphate
   44    46     1     0     0
SMALL
USER_CHARGES

@<TRIPOS>ATOM
      1 PG         -0.4748   -6.0357   -2.1326 P.3       1 ATP        -1.1921
      2 O1G        -1.9757   -6.0703   -2.4008 O.co2     1 ATP         0.3195
      3 O2G         0.3241   -7.0905   -2.8907 O.co2     1 ATP         0.3195
      4 O3G        -0.1049   -5.9100   -0.6583 O.co2     1 ATP         0.3195
      5 PB         -0.4352   -3.0758   -2.4350 P.3       1 ATP        -1.1062
      6 O1B        -1.8813   -2.8939   -2.8392 O.co2     1 ATP         0.3195
      7 O2B         0.0365   -2.7355   -1.0389 O.co2     1 ATP         0.3195
      8 O3B         0.0207   -4.6048   -2.7861 O.3       1 ATP         0.4672
      9 PA          2.1375   -2.2725   -3.6560 P.3       1 ATP        -1.1062
     10 O1A         2.5092   -1.2469   -4.7046 O.co2     1 ATP         0.3195
     11 O2A         2.6337   -3.6984   -3.7587 O.co2     1 ATP         0.3195
     12 O3A         0.5101   -2.2919   -3.5107 O.3       1 ATP         0.4672
     13 O5'         2.5245   -1.6648   -2.1878 O.3       1 ATP         0.1618
     14 C5'         2.2816   -0.2918   -1.9206 C.3       1 ATP         0.1504
     15 C4'         2.7248    0.0226   -0.4980 C.3       1 ATP         0.1111
     16 O4'         2.4697    1.4219   -0.2462 O.3       1 ATP        -0.1436
     17 C3'         1.9404   -0.7419    0.5596 C.3       1 ATP         0.1111
     18 O3'         2.7418   -0.8086    1.7389 O.3       1 ATP        -0.2728
     19 C2'         0.7477    0.1630    0.7858 C.3       1 ATP         0.1111
     20 O2'         0.1373   -0.0577    2.0407 O.3       1 ATP        -0.2728
     21 C1'         1.3733    1.5427    0.6747 C.3       1 ATP         0.2693
     22 N9          0.4520    2.5240    0.1767 N.pl3     1 ATP        -0.3222
     23 C8         -1.0660    2.5608    0.3999 C.ar      1 ATP         0.1640
     24 N7         -1.5852    3.6333   -0.2221 N.2       1 ATP        -0.1640
     25 C5         -0.4682    4.1996   -0.7771 C.ar      1 ATP         0.0820
     26 C6         -0.5216    5.4476   -1.5899 C.ar      1 ATP         0.1640
     27 N6         -1.6813    6.0510   -1.7982 N.pl3     1 ATP        -0.4916
     28 N1          0.6621    5.8575   -2.0523 N.pl3     1 ATP        -0.4390
     29 C2          1.8795    5.1301   -1.7717 C.ar      1 ATP         0.5691
     30 N3          1.9458    4.0434   -1.0670 N.ar      1 ATP        -0.4283
     31 C4          0.7388    3.6199   -0.5917 C.ar      1 ATP         0.2226
     32 H5'1        2.8432    0.3119   -2.6398 H         1 ATP        -0.0393
     33 H5'2        1.2128   -0.0927   -2.0428 H         1 ATP        -0.0393
     34 H4'         3.8040   -0.1399   -0.4044 H         1 ATP        -0.0393
     35 H3'         1.6768   -1.7637    0.2732 H         1 ATP        -0.0393
     36 HO3'        2.2231   -1.2979    2.3952 H         1 ATP         0.2010
     37 H2'         0.0002   -0.0084   -0.0014 H         1 ATP        -0.0393
     38 HO2'       -0.1554   -0.9852    2.0577 H         1 ATP         0.2010
     39 H1'         1.7718    1.9211    1.6015 H         1 ATP        -0.0393
     40 H8         -1.7235    1.8833    0.9537 H         1 ATP         0.0000
     41 HN61       -2.5296    5.6672   -1.4072 H         1 ATP         0.2048
     42 HN62       -1.7205    6.8969   -2.3483 H         1 ATP         0.2048
     43 H2          2.7750    5.5878   -2.2190 H         1 ATP        -0.1292
     44 H44         0.6808    6.7046   -2.6128 H         1 ATP         0.2048
@<TRIPOS>BOND
     1    1    2 2
     2    1    3 1
     3    1    4 1
     4    1    8 1
     5    5    6 2
     6    5    7 1
     7    5    8 1
     8    5   12 1
     9    9   10 2
    10    9   11 1
    11    9   12 1
    12    9   13 1
    13   13   14 1
    14   14   15 1
    15   14   32 1
    16   14   33 1
    17   15   16 1
    18   15   17 1
    19   15   34 1
    20   16   21 1
    21   17   18 1
    22   17   19 1
    23   17   35 1
    24   18   36 1
    25   19   20 1
    26   19   21 1
    27   19   37 1
    28   20   38 1
    29   21   22 1
    30   21   39 1
    31   22   23 ar
    32   22   31 ar
    33   23   24 ar
    34   23   40 1
    35   24   25 ar
    36   25   26 ar
    37   25   31 ar
    38   26   27 1
    39   26   28 ar
    40   27   41 1
    41   27   42 1
    42   28   29 ar
    43   28   44 1
    44   29   30 ar
    45   29   43 1
    46   30   31 ar
@<TRIPOS>SUBSTRUCTURE
     1 ATP         1 GROUP 0 A     ****
@<TRIPOS>MOLECULE
[[[5-(6-amino-1,8-dihydropurine-6,8-diylium-7-id-9-yl)-3,4-dihydroxy-tetrahydrofuran-2-yl]methoxy-oxido-phosphoryl]oxy-oxido-phosphoryl] phosphate
   44    46     1     0     0
SMALL
USER_CHARGES

@<TRIPOS>ATOM
      1 PG         -3.4861   -2.4109   -3.3878 P.3       1 ATP        -1.1921
      2 O1G        -3.6092   -3.7482   -4.1105 O.co2     1 ATP         0.3195
      3 O2G        -3.8899   -2.4509   -1.9178 O.co2     1 ATP         0.3195
      4 O3G        -4.0555   -1.2263   -4.1614 O.co2     1 ATP         0.3195
      5 PB         -0.8007   -1.9512   -4.5841 P.3       1 ATP        -1.1062
      6 O1B        -0.6628   -3.2815   -5.2903 O.co2     1 ATP         0.3195
      7 O2B        -1.1325   -0.6892   -5.3487 O.co2     1 ATP         0.3195
      8 O3B        -1.8638   -2.1161   -3.3546 O.3       1 ATP         0.4672
      9 PA          1.2687   -2.6351   -2.5828 P.3       1 ATP        -1.1062
     10 O1A         1.8191   -3.8593   -3.2812 O.co2     1 ATP         0.3195
     11 O2A         0.3445   -2.7738   -1.3925 O.co2     1 ATP         0.3195
     12 O3A         0.5467   -1.6871   -3.7007 O.3       1 ATP         0.4672
     13 O5'         2.5245   -1.6648   -2.1878 O.3       1 ATP         0.1618
     14 C5'         2.2816   -0.2918   -1.9206 C.3       1 ATP         0.1504
     15 C4'         2.7248    0.0226   -0.4980 C.3       1 ATP         0.1111
     16 O4'         2.4697    1.4219   -0.2462 O.3       1 ATP        -0.1436
     17 C3'         1.9404   -0.7419    0.5596 C.3       1 ATP         0.1111
     18 O3'         2.7418   -0.8086    1.7389 O.3       1 ATP        -0.2728
     19 C2'         0.7477    0.1630    0.7858 C.3       1 ATP         0.1111
     20 O2'         0.1373   -0.0577    2.0407 O.3       1 ATP        -0.2728
     21 C1'         1.3733    1.5427    0.6747 C.3       1 ATP         0.2693
     22 N9          0.4520    2.5240    0.1767 N.pl3     1 ATP        -0.3222
     23 C8          0.5793    3.3338   -1.1209 C.ar      1 ATP         0.1640
     24 N7         -0.4807    4.1508   -1.2458 N.2       1 ATP        -0.1640
     25 C5         -1.1921    3.8572   -0.1126 C.ar      1 ATP         0.0820
     26 C6         -2.4855    4.5203    0.2163 C.ar      1 ATP         0.1640
     27 N6         -2.9873    5.4319   -0.6020 N.pl3     1 ATP        -0.4916
     28 N1         -3.0414    4.1119    1.3596 N.pl3     1 ATP        -0.4390
     29 C2         -2.4169    3.1071    2.1904 C.ar      1 ATP         0.5691
     30 N3         -1.2928    2.5191    1.9210 N.ar      1 ATP        -0.4283
     31 C4         -0.7202    2.9326    0.7534 C.ar      1 ATP         0.2226
     32 H5'1        2.8432    0.3119   -2.6398 H         1 ATP        -0.0393
     33 H5'2        1.2128   -0.0927   -2.0428 H         1 ATP        -0.0393
     34 H4'         3.8040   -0.1399   -0.4044 H         1 ATP        -0.0393
     35 H3'         1.6768   -1.7637    0.2732 H         1 ATP        -0.0393
     36 HO3'        2.2231   -1.2979    2.3952 H         1 ATP         0.2010
     37 H2'         0.0002   -0.0084   -0.0014 H         1 ATP        -0.0393
     38 HO2'       -0.1554   -0.9852    2.0577 H         1 ATP         0.2010
     39 H1'         1.7718    1.9211    1.6015 H         1 ATP        -0.0393
     40 H8          1.3565    3.3309   -1.8916 H         1 ATP         0.0000
     41 HN61       -2.4952    5.6785   -1.4487 H         1 ATP         0.2048
     42 HN62       -3.8637    5.8828   -0.3819 H         1 ATP         0.2048
     43 H2         -2.9911    2.8734    3.1000 H         1 ATP        -0.1292
     44 H44        -3.9253    4.5332    1.6302 H         1 ATP         0.2048
@<TRIPOS>BOND
     1    1    2 2
     2    1    3 1
     3    1    4 1
     4    1    8 1
     5    5    6 2
     6    5    7 1
     7    5    8 1
     8    5   12 1
     9    9   10 2
    10    9   11 1
    11    9   12 1
    12    9   13 1
    13   13   14 1
    14   14   15 1
    15   14   32 1
    16   14   33 1
    17   15   16 1
    18   15   17 1
    19   15   34 1
    20   16   21 1
    21   17   18 1
    22   17   19 1
    23   17   35 1
    24   18   36 1
    25   19   20 1
    26   19   21 1
    27   19   37 1
    28   20   38 1
    29   21   22 1
    30   21   39 1
    31   22   23 ar
    32   22   31 ar
    33   23   24 ar
    34   23   40 1
    35   24   25 ar
    36   25   26 ar
    37   25   31 ar
    38   26   27 1
    39   26   28 ar
    40   27   41 1
    41   27   42 1
    42   28   29 ar
    43   28   44 1
    44   29   30 ar
    45   29   43 1
    46   30   31 ar
@<TRIPOS>SUBSTRUCTURE
     1 ATP         1 GROUP 0 A     ****
@<TRIPOS>MOLECULE
[[[5-(6-amino-1,8-dihydropurine-6,8-diylium-7-id-9-yl)-3,4-dihydroxy-tetrahydrofuran-2-yl]methoxy-oxido-phosphoryl]oxy-oxido-phosphoryl] phosphate
   44    46     1     0     0
SMALL
USER_CHARGES

@<TRIPOS>ATOM
      1 PG          1.5901    4.9870   -5.2859 P.3       1 ATP        -1.1921
      2 O1G         2.0000    5.5309   -3.9214 O.co2     1 ATP         0.3195
      3 O2G         2.6260    5.1994   -6.3848 O.co2     1 ATP         0.3195
      4 O3G         0.1627    5.3346   -5.6955 O.co2     1 ATP         0.3195
      5 PB          0.6585    2.4448   -4.0518 P.3       1 ATP        -1.1062
      6 O1B         1.0985    2.7344   -2.6340 O.co2     1 ATP         0.3195
      7 O2B        -0.7954    2.5437   -4.4563 O.co2     1 ATP         0.3195
      8 O3B         1.5521    3.3517   -5.0755 O.3       1 ATP         0.4672
      9 PA          2.7413    0.3775   -4.4298 P.3       1 ATP        -1.1062
     10 O1A         3.6560    1.3416   -5.1533 O.co2     1 ATP         0.3195
     11 O2A         2.7031   -1.0864   -4.8115 O.co2     1 ATP         0.3195
     12 O3A         1.2211    0.9740   -4.4828 O.3       1 ATP         0.4672
     13 O5'         3.0213    0.5153   -2.8245 O.3       1 ATP         0.1618
     14 C5'         2.2816   -0.2918   -1.9206 C.3       1 ATP         0.1504
     15 C4'         2.7248    0.0226   -0.4980 C.3       1 ATP         0.1111
     16 O4'         2.4697    1.4219   -0.2462 O.3       1 ATP        -0.1436
     17 C3'         1.9404   -0.7419    0.5596 C.3       1 ATP         0.1111
     18 O3'         2.7418   -0.8086    1.7389 O.3       1 ATP        -0.2728
     19 C2'         0.7477    0.1630    0.7858 C.3       1 ATP         0.1111
     20 O2'         0.1373   -0.0577    2.0407 O.3       1 ATP        -0.2728
     21 C1'         1.3733    1.5427    0.6747 C.3       1 ATP         0.2693
     22 N9          0.4520    2.5240    0.1767 N.pl3     1 ATP        -0.3222
     23 C8         -1.0247    2.3053   -0.1800 C.ar      1 ATP         0.1640
     24 N7         -1.5580    3.4612   -0.6116 N.2       1 ATP        -0.1640
     25 C5         -0.4873    4.3110   -0.5222 C.ar      1 ATP         0.0820
     26 C6         -0.5728    5.7505   -0.8981 C.ar      1 ATP         0.1640
     27 N6         -1.7163    6.2514   -1.3385 N.pl3     1 ATP        -0.4916
     28 N1          0.5667    6.4301   -0.7475 N.pl3     1 ATP        -0.4390
     29 C2          1.7697    5.7952   -0.2579 C.ar      1 ATP         0.5691
     30 N3          1.8633    4.5450    0.0742 N.ar      1 ATP        -0.4283
     31 C4          0.7014    3.8457   -0.0776 C.ar      1 ATP         0.2226
     32 H5'1        1.2163   -0.0770   -2.0471 H         1 ATP        -0.0393
     33 H5'2        2.4655   -1.3443   -2.1563 H         1 ATP        -0.0393
     34 H4'         3.8040   -0.1399   -0.4044 H         1 ATP        -0.0393
     35 H3'         1.6768   -1.7637    0.2732 H         1 ATP        -0.0393
     36 HO3'        3.5553   -1.2733    1.4913 H         1 ATP         0.2010
     37 H2'         0.0002   -0.0084   -0.0014 H         1 ATP        -0.0393
     38 HO2'       -0.6132    0.5577    2.1063 H         1 ATP         0.2010
     39 H1'         1.7718    1.9211    1.6015 H         1 ATP        -0.0393
     40 H8         -1.6458    1.4054   -0.1318 H         1 ATP         0.0000
     41 HN61       -2.5307    5.6598   -1.4199 H         1 ATP         0.2048
     42 HN62       -1.7773    7.2266   -1.5938 H         1 ATP         0.2048
     43 H2          2.6279    6.4808   -0.1872 H         1 ATP        -0.1292
     44 H44         0.5621    7.4166   -0.9900 H         1 ATP         0.2048
@<TRIPOS>BOND
     1    1    2 2
     2    1    3 1
     3    1    4 1
     4    1    8 1
     5    5    6 2
     6    5    7 1
     7    5    8 1
     8    5   12 1
     9    9   10 2
    10    9   11 1
    11    9   12 1
    12    9   13 1
    13   13   14 1
    14   14   15 1
    15   14   32 1
    16   14   33 1
    17   15   16 1
    18   15   17 1
    19   15   34 1
    20   16   21 1
    21   17   18 1
    22   17   19 1
    23   17   35 1
    24   18   36 1
    25   19   20 1
    26   19   21 1
    27   19   37 1
    28   20   38 1
    29   21   22 1
    30   21   39 1
    31   22   23 ar
    32   22   31 ar
    33   23   24 ar
    34   23   40 1
    35   24   25 ar
    36   25   26 ar
    37   25   31 ar
    38   26   27 1
    39   26   28 ar
    40   27   41 1
    41   27   42 1
    42   28   29 ar
    43   28   44 1
    44   29   30 ar
    45   29   43 1
    46   30   31 ar
@<TRIPOS>SUBSTRUCTURE
     1 ATP         1 GROUP 0 A     ****
@<TRIPOS>MOLECULE
[[[5-(6-amino-1,8-dihydropurine-6,8-diylium-7-id-9-yl)-3,4-dihydroxy-tetrahydrofuran-2-yl]methoxy-oxido-phosphoryl]oxy-oxido-phosphoryl] phosphate
   44    46     1     0     0
SMALL
USER_CHARGES

@<TRIPOS>ATOM
      1 PG          8.3522    0.1298    0.7375 P.3       1 ATP        -1.1921
      2 O1G         9.3882    1.0270    0.0685 O.co2     1 ATP         0.3195
      3 O2G         7.8115    0.6692    2.0574 O.co2     1 ATP         0.3195
      4 O3G         8.7323   -1.3468    0.7734 O.co2     1 ATP         0.3195
      5 PB          6.9376   -0.2571   -1.8516 P.3       1 ATP        -1.1062
      6 O1B         7.7750    0.6886   -2.6835 O.co2     1 ATP         0.3195
      7 O2B         7.1119   -1.7558   -1.9560 O.co2     1 ATP         0.3195
      8 O3B         7.0562    0.1780   -0.2813 O.3       1 ATP         0.4672
      9 PA          4.4374   -0.0458   -3.4198 P.3       1 ATP        -1.1062
     10 O1A         4.2717   -1.5190   -3.7229 O.co2     1 ATP         0.3195
     11 O2A         4.9542    0.9076   -4.4752 O.co2     1 ATP         0.3195
     12 O3A         5.3616    0.1021   -2.0805 O.3       1 ATP         0.4672
     13 O5'         3.0213    0.5153   -2.8245 O.3       1 ATP         0.1618
     14 C5'         2.2816   -0.2918   -1.9206 C.3       1 ATP         0.1504
     15 C4'         2.7248    0.0226   -0.4980 C.3       1 ATP         0.1111
     16 O4'         2.4697    1.4219   -0.2462 O.3       1 ATP        -0.1436
     17 C3'         1.9404   -0.7419    0.5596 C.3       1 ATP         0.1111
     18 O3'         2.7418   -0.8086    1.7389 O.3       1 ATP        -0.2728
     19 C2'         0.7477    0.1630    0.7858 C.3       1 ATP         0.1111
     20 O2'         0.1373   -0.0577    2.0407 O.3       1 ATP        -0.2728
     21 C1'         1.3733    1.5427    0.6747 C.3       1 ATP         0.2693
     22 N9          0.4520    2.5240    0.1767 N.pl3     1 ATP        -0.3222
     23 C8         -1.0660    2.5608    0.3999 C.ar      1 ATP         0.1640
     24 N7         -1.5852    3.6333   -0.2221 N.2       1 ATP        -0.1640
     25 C5         -0.4682    4.1996   -0.7771 C.ar      1 ATP         0.0820
     26 C6         -0.5216    5.4476   -1.5899 C.ar      1 ATP         0.1640
     27 N6         -1.6813    6.0510   -1.7982 N.pl3     1 ATP        -0.4916
     28 N1          0.6621    5.8575   -2.0523 N.pl3     1 ATP        -0.4390
     29 C2          1.8795    5.1301   -1.7717 C.ar      1 ATP         0.5691
     30 N3          1.9458    4.0434   -1.0670 N.ar      1 ATP        -0.4283
     31 C4          0.7388    3.6199   -0.5917 C.ar      1 ATP         0.2226
     32 H5'1        1.2163   -0.0770   -2.0471 H         1 ATP        -0.0393
     33 H5'2        2.4655   -1.3443   -2.1563 H         1 ATP        -0.0393
     34 H4'         3.8040   -0.1399   -0.4044 H         1 ATP        -0.0393
     35 H3'         1.6768   -1.7637    0.2732 H         1 ATP        -0.0393
     36 HO3'        2.2231   -1.2979    2.3952 H         1 ATP         0.2010
     37 H2'         0.0002   -0.0084   -0.0014 H         1 ATP        -0.0393
     38 HO2'       -0.1554   -0.9852    2.0577 H         1 ATP         0.2010
     39 H1'         1.7718    1.9211    1.6015 H         1 ATP        -0.0393
     40 H8         -1.7235    1.8833    0.9537 H         1 ATP         0.0000
     41 HN61       -2.5296    5.6672   -1.4072 H         1 ATP         0.2048
     42 HN62       -1.7205    6.8969   -2.3483 H         1 ATP         0.2048
     43 H2          2.7750    5.5878   -2.2190 H         1 ATP        -0.1292
     44 H44         0.6808    6.7046   -2.6128 H         1 ATP         0.2048
@<TRIPOS>BOND
     1    1    2 2
     2    1    3 1
     3    1    4 1
     4    1    8 1
     5    5    6 2
     6    5    7 1
     7    5    8 1
     8    5   12 1
     9    9   10 2
    10    9   11 1
    11    9   12 1
    12    9   13 1
    13   13   14 1
    14   14   15 1
    15   14   32 1
    16   14   33 1
    17   15   16 1
    18   15   17 1
    19   15   34 1
    20   16   21 1
    21   17   18 1
    22   17   19 1
    23   17   35 1
    24   18   36 1
    25   19   20 1
    26   19   21 1
    27   19   37 1
    28   20   38 1
    29   21   22 1
    30   21   39 1
    31   22   23 ar
    32   22   31 ar
    33   23   24 ar
    34   23   40 1
    35   24   25 ar
    36   25   26 ar
    37   25   31 ar
    38   26   27 1
    39   26   28 ar
    40   27   41 1
    41   27   42 1
    42   28   29 ar
    43   28   44 1
    44   29   30 ar
    45   29   43 1
    46   30   31 ar
@<TRIPOS>SUBSTRUCTURE
     1 ATP         1 GROUP 0 A     ****
@<TRIPOS>MOLECULE
[[[5-(6-amino-1,8-dihydropurine-6,8-diylium-7-id-9-yl)-3,4-dihydroxy-tetrahydrofuran-2-yl]methoxy-oxido-phosphoryl]oxy-oxido-phosphoryl] phosphate
   44    46     1     0     0
SMALL
USER_CHARGES

@<TRIPOS>ATOM
      1 PG          4.8261   -0.6960   -7.7264 P.3       1 ATP        -1.1921
      2 O1G         3.5224    0.0085   -7.3660 O.co2     1 ATP         0.3195
      3 O2G         5.9383    0.2381   -8.1913 O.co2     1 ATP         0.3195
      4 O3G         4.6478   -1.9375   -8.5942 O.co2     1 ATP         0.3195
      5 PB          4.6755   -2.3517   -5.2586 P.3       1 ATP        -1.1062
      6 O1B         3.6684   -3.1836   -6.0210 O.co2     1 ATP         0.3195
      7 O2B         5.7556   -3.0012   -4.4226 O.co2     1 ATP         0.3195
      8 O3B         5.3735   -1.2948   -6.2905 O.3       1 ATP         0.4672
      9 PA          4.4374   -0.0458   -3.4198 P.3       1 ATP        -1.1062
     10 O1A         5.0088    1.0040   -4.3477 O.co2     1 ATP         0.3195
     11 O2A         5.2690   -0.6154   -2.2910 O.co2     1 ATP         0.3195
     12 O3A         3.8693   -1.2796   -4.3279 O.3       1 ATP         0.4672
     13 O5'         3.0213    0.5153   -2.8245 O.3       1 ATP         0.1618
     14 C5'         2.2816   -0.2918   -1.9206 C.3       1 ATP         0.1504
     15 C4'         2.7248    0.0226   -0.4980 C.3       1 ATP         0.1111
     16 O4'         2.4697    1.4219   -0.2462 O.3       1 ATP        -0.1436
     17 C3'         1.9404   -0.7419    0.5596 C.3       1 ATP         0.1111
     18 O3'         2.7418   -0.8086    1.7389 O.3       1 ATP        -0.2728
     19 C2'         0.7477    0.1630    0.7858 C.3       1 ATP         0.1111
     20 O2'         0.1373   -0.0577    2.0407 O.3       1 ATP        -0.2728
     21 C1'         1.3733    1.5427    0.6747 C.3       1 ATP         0.2693
     22 N9          0.4520    2.5240    0.1767 N.pl3     1 ATP        -0.3222
     23 C8         -1.0660    2.5608    0.3999 C.ar      1 ATP         0.1640
     24 N7         -1.5852    3.6333   -0.2221 N.2       1 ATP        -0.1640
     25 C5         -0.4682    4.1996   -0.7771 C.ar      1 ATP         0.0820
     26 C6         -0.5216    5.4476   -1.5899 C.ar      1 ATP         0.1640
     27 N6         -1.6813    6.0510   -1.7982 N.pl3     1 ATP        -0.4916
     28 N1          0.6621    5.8575   -2.0523 N.pl3     1 ATP        -0.4390
     29 C2          1.8795    5.1301   -1.7717 C.ar      1 ATP         0.5691
     30 N3          1.9458    4.0434   -1.0670 N.ar      1 ATP        -0.4283
     31 C4          0.7388    3.6199   -0.5917 C.ar      1 ATP         0.2226
     32 H5'1        1.2163   -0.0770   -2.0471 H         1 ATP        -0.0393
     33 H5'2        2.4655   -1.3443   -2.1563 H         1 ATP        -0.0393
     34 H4'         3.8040   -0.1399   -0.4044 H         1 ATP        -0.0393
     35 H3'         1.6768   -1.7637    0.2732 H         1 ATP        -0.0393
     36 HO3'        2.2231   -1.2979    2.3952 H         1 ATP         0.2010
     37 H2'         0.0002   -0.0084   -0.0014 H         1 ATP        -0.0393
     38 HO2'       -0.1554   -0.9852    2.0577 H         1 ATP         0.2010
     39 H1'         1.7718    1.9211    1.6015 H         1 ATP        -0.0393
     40 H8         -1.7235    1.8833    0.9537 H         1 ATP         0.0000
     41 HN61       -2.5296    5.6672   -1.4072 H         1 ATP         0.2048
     42 HN62       -1.7205    6.8969   -2.3483 H         1 ATP         0.2048
     43 H2          2.7750    5.5878   -2.2190 H         1 ATP        -0.1292
     44 H44         0.6808    6.7046   -2.6128 H         1 ATP         0.2048
@<TRIPOS>BOND
     1    1    2 2
     2    1    3 1
     3    1    4 1
     4    1    8 1
     5    5    6 2
     6    5    7 1
     7    5    8 1
     8    5   12 1
     9    9   10 2
    10    9   11 1
    11    9   12 1
    12    9   13 1
    13   13   14 1
    14   14   15 1
    15   14   32 1
    16   14   33 1
    17   15   16 1
    18   15   17 1
    19   15   34 1
    20   16   21 1
    21   17   18 1
    22   17   19 1
    23   17   35 1
    24   18   36 1
    25   19   20 1
    26   19   21 1
    27   19   37 1
    28   20   38 1
    29   21   22 1
    30   21   39 1
    31   22   23 ar
    32   22   31 ar
    33   23   24 ar
    34   23   40 1
    35   24   25 ar
    36   25   26 ar
    37   25   31 ar
    38   26   27 1
    39   26   28 ar
    40   27   41 1
    41   27   42 1
    42   28   29 ar
    43   28   44 1
    44   29   30 ar
    45   29   43 1
    46   30   31 ar
@<TRIPOS>SUBSTRUCTURE
     1 ATP         1 GROUP 0 A     ****
@<TRIPOS>MOLECULE
[[[5-(6-amino-1,8-dihydropurine-6,8-diylium-7-id-9-yl)-3,4-dihydroxy-tetrahydrofuran-2-yl]methoxy-oxido-phosphoryl]oxy-oxido-phosphoryl] phosphate
   44    46     1     0     0
SMALL
USER_CHARGES

@<TRIPOS>ATOM
      1 PG          3.9316    0.2073   -8.9648 P.3       1 ATP        -1.1921
      2 O1G         3.0733    1.2859   -9.6174 O.co2     1 ATP         0.3195
      3 O2G         5.4210    0.5312   -8.9182 O.co2     1 ATP         0.3195
      4 O3G         3.6135   -1.2108   -9.4271 O.co2     1 ATP         0.3195
      5 PB          1.9961   -0.0488   -6.7193 P.3       1 ATP        -1.1062
      6 O1B         1.0661    1.0731   -7.1241 O.co2     1 ATP         0.3195
      7 O2B         1.6193   -1.4968   -6.9403 O.co2     1 ATP         0.3195
      8 O3B         3.4645    0.2198   -7.3832 O.3       1 ATP         0.4672
      9 PA          3.4850   -0.6647   -4.2376 P.3       1 ATP        -1.1062
     10 O1A         4.8722   -0.3650   -4.7624 O.co2     1 ATP         0.3195
     11 O2A         3.0098   -2.0927   -4.0794 O.co2     1 ATP         0.3195
     12 O3A         2.4031    0.1509   -5.1508 O.3       1 ATP         0.4672
     13 O5'         3.2903    0.1346   -2.8241 O.3       1 ATP         0.1618
     14 C5'         2.2816   -0.2918   -1.9206 C.3       1 ATP         0.1504
     15 C4'         2.7248    0.0226   -0.4980 C.3       1 ATP         0.1111
     16 O4'         2.4697    1.4219   -0.2462 O.3       1 ATP        -0.1436
     17 C3'         1.9404   -0.7419    0.5596 C.3       1 ATP         0.1111
     18 O3'         2.7418   -0.8086    1.7389 O.3       1 ATP        -0.2728
     19 C2'         0.7477    0.1630    0.7858 C.3       1 ATP         0.1111
     20 O2'         0.1373   -0.0577    2.0407 O.3       1 ATP        -0.2728
     21 C1'         1.3733    1.5427    0.6747 C.3       1 ATP         0.2693
     22 N9          0.4520    2.5240    0.1767 N.pl3     1 ATP        -0.3222
     23 C8         -0.7463    2.2774   -0.7501 C.ar      1 ATP         0.1640
     24 N7         -1.3714    3.4419   -0.9948 N.2       1 ATP        -0.1640
     25 C5         -0.6104    4.3223   -0.2723 C.ar      1 ATP         0.0820
     26 C6         -0.9062    5.7820   -0.2194 C.ar      1 ATP         0.1640
     27 N6         -1.9385    6.2713   -0.8881 N.pl3     1 ATP        -0.4916
     28 N1         -0.0613    6.4906    0.5336 N.pl3     1 ATP        -0.4390
     29 C2          1.0416    5.8662    1.2291 C.ar      1 ATP         0.5691
     30 N3          1.3146    4.5989    1.1954 N.ar      1 ATP        -0.4283
     31 C4          0.4541    3.8697    0.4273 C.ar      1 ATP         0.2226
     32 H5'1        1.3514    0.2330   -2.1577 H         1 ATP        -0.0393
     33 H5'2        2.1280   -1.3678   -2.0460 H         1 ATP        -0.0393
     34 H4'         3.8040   -0.1399   -0.4044 H         1 ATP        -0.0393
     35 H3'         1.6768   -1.7637    0.2732 H         1 ATP        -0.0393
     36 HO3'        2.2231   -1.2979    2.3952 H         1 ATP         0.2010
     37 H2'         0.0002   -0.0084   -0.0014 H         1 ATP        -0.0393
     38 HO2'       -0.6132    0.5577    2.1063 H         1 ATP         0.2010
     39 H1'         1.7718    1.9211    1.6015 H         1 ATP        -0.0393
     40 H8         -1.1244    1.3534   -1.1987 H         1 ATP         0.0000
     41 HN61       -2.5259    5.6573   -1.4336 H         1 ATP         0.2048
     42 HN62       -2.1416    7.2600   -0.8539 H         1 ATP         0.2048
     43 H2          1.6509    6.5764    1.8088 H         1 ATP        -0.1292
     44 H44        -0.2190    7.4917    0.6033 H         1 ATP         0.2048
@<TRIPOS>BOND
     1    1    2 2
     2    1    3 1
     3    1    4 1
     4    1    8 1
     5    5    6 2
     6    5    7 1
     7    5    8 1
     8    5   12 1
     9    9   10 2
    10    9   11 1
    11    9   12 1
    12    9   13 1
    13   13   14 1
    14   14   15 1
    15   14   32 1
    16   14   33 1
    17   15   16 1
    18   15   17 1
    19   15   34 1
    20   16   21 1
    21   17   18 1
    22   17   19 1
    23   17   35 1
    24   18   36 1
    25   19   20 1
    26   19   21 1
    27   19   37 1
    28   20   38 1
    29   21   22 1
    30   21   39 1
    31   22   23 ar
    32   22   31 ar
    33   23   24 ar
    34   23   40 1
    35   24   25 ar
    36   25   26 ar
    37   25   31 ar
    38   26   27 1
    39   26   28 ar
    40   27   41 1
    41   27   42 1
    42   28   29 ar
    43   28   44 1
    44   29   30 ar
    45   29   43 1
    46   30   31 ar
@<TRIPOS>SUBSTRUCTURE
     1 ATP         1 GROUP 0 A     ****
@<TRIPOS>MOLECULE
[[[5-(6-amino-1,8-dihydropurine-6,8-diylium-7-id-9-yl)-3,4-dihydroxy-tetrahydrofuran-2-yl]methoxy-oxido-phosphoryl]oxy-oxido-phosphoryl] phosphate
   44    46     1     0     0
SMALL
USER_CHARGES

@<TRIPOS>ATOM
      1 PG          6.8526   -2.9650    1.5298 P.3       1 ATP        -1.1921
      2 O1G         8.2965   -2.5319    1.2986 O.co2     1 ATP         0.3195
      3 O2G         6.2267   -2.4119    2.8057 O.co2     1 ATP         0.3195
      4 O3G         6.6009   -4.4520    1.3027 O.co2     1 ATP         0.3195
      5 PB          6.1661   -2.3759   -1.3049 P.3       1 ATP        -1.1062
      6 O1B         7.4987   -1.7931   -1.7194 O.co2     1 ATP         0.3195
      7 O2B         5.7631   -3.7759   -1.7112 O.co2     1 ATP         0.3195
      8 O3B         6.0107   -2.2332    0.3152 O.3       1 ATP         0.4672
      9 PA          4.4792   -0.9077   -3.2423 P.3       1 ATP        -1.1062
     10 O1A         3.8416   -2.1127   -3.8989 O.co2     1 ATP         0.3195
     11 O2A         5.5942   -0.1511   -3.9311 O.co2     1 ATP         0.3195
     12 O3A         4.9832   -1.3425   -1.7501 O.3       1 ATP         0.4672
     13 O5'         3.2903    0.1346   -2.8241 O.3       1 ATP         0.1618
     14 C5'         2.2816   -0.2918   -1.9206 C.3       1 ATP         0.1504
     15 C4'         2.7248    0.0226   -0.4980 C.3       1 ATP         0.1111
     16 O4'         2.4697    1.4219   -0.2462 O.3       1 ATP        -0.1436
     17 C3'         1.9404   -0.7419    0.5596 C.3       1 ATP         0.1111
     18 O3'         2.7418   -0.8086    1.7389 O.3       1 ATP        -0.2728
     19 C2'         0.7477    0.1630    0.7858 C.3       1 ATP         0.1111
     20 O2'         0.1373   -0.0577    2.0407 O.3       1 ATP        -0.2728
     21 C1'         1.3733    1.5427    0.6747 C.3       1 ATP         0.2693
     22 N9          0.4520    2.5240    0.1767 N.pl3     1 ATP        -0.3222
     23 C8         -0.3054    2.4845   -1.1576 C.ar      1 ATP         0.1640
     24 N7         -1.0755    3.5806   -1.2691 N.2       1 ATP        -0.1640
     25 C5         -0.8043    4.2306   -0.0942 C.ar      1 ATP         0.0820
     26 C6         -1.4324    5.5335    0.2646 C.ar      1 ATP         0.1640
     27 N6         -2.2885    6.1054   -0.5675 N.pl3     1 ATP        -0.4916
     28 N1         -1.0537    6.0229    1.4478 N.pl3     1 ATP        -0.4390
     29 C2         -0.1096    5.3242    2.2908 C.ar      1 ATP         0.5691
     30 N3          0.4468    4.1904    1.9960 N.ar      1 ATP        -0.4283
     31 C4          0.0631    3.6855    0.7877 C.ar      1 ATP         0.2226
     32 H5'1        1.3514    0.2330   -2.1577 H         1 ATP        -0.0393
     33 H5'2        2.1280   -1.3678   -2.0460 H         1 ATP        -0.0393
     34 H4'         3.8040   -0.1399   -0.4044 H         1 ATP        -0.0393
     35 H3'         1.6768   -1.7637    0.2732 H         1 ATP        -0.0393
     36 HO3'        3.5553   -1.2733    1.4913 H         1 ATP         0.2010
     37 H2'         0.0002   -0.0084   -0.0014 H         1 ATP        -0.0393
     38 HO2'        0.8091    0.1203    2.7213 H         1 ATP         0.2010
     39 H1'         1.7718    1.9211    1.6015 H         1 ATP        -0.0393
     40 H8         -0.2991    1.7413   -1.9611 H         1 ATP         0.0000
     41 HN61       -2.5167    5.6603   -1.4447 H         1 ATP         0.2048
     42 HN62       -2.7159    6.9882   -0.3270 H         1 ATP         0.2048
     43 H2          0.1059    5.8491    3.2340 H         1 ATP        -0.1292
     44 H44        -1.4532    6.9099    1.7401 H         1 ATP         0.2048
@<TRIPOS>BOND
     1    1    2 2
     2    1    3 1
     3    1    4 1
     4    1    8 1
     5    5    6 2
     6    5    7 1
     7    5    8 1
     8    5   12 1
     9    9   10 2
    10    9   11 1
    11    9   12 1
    12    9   13 1
    13   13   14 1
    14   14   15 1
    15   14   32 1
    16   14   33 1
    17   15   16 1
    18   15   17 1
    19   15   34 1
    20   16   21 1
    21   17   18 1
    22   17   19 1
    23   17   35 1
    24   18   36 1
    25   19   20 1
    26   19   21 1
    27   19   37 1
    28   20   38 1
    29   21   22 1
    30   21   39 1
    31   22   23 ar
    32   22   31 ar
    33   23   24 ar
    34   23   40 1
    35   24   25 ar
    36   25   26 ar
    37   25   31 ar
    38   26   27 1
    39   26   28 ar
    40   27   41 1
    41   27   42 1
    42   28   29 ar
    43   28   44 1
    44   29   30 ar
    45   29   43 1
    46   30   31 ar
@<TRIPOS>SUBSTRUCTURE
     1 ATP         1 GROUP 0 A     ****
@<TRIPOS>MOLECULE
[[[5-(6-amino-1,8-dihydropurine-6,8-diylium-7-id-9-yl)-3,4-dihydroxy-tetrahydrofuran-2-yl]methoxy-oxido-phosphoryl]oxy-oxido-phosphoryl] phosphate
   44    46     1     0     0
SMALL
USER_CHARGES

@<TRIPOS>ATOM
      1 PG          0.3080    0.0791   -6.4556 P.3       1 ATP        -1.1921
      2 O1G         0.4279   -0.9652   -7.5605 O.co2     1 ATP         0.3195
      3 O2G        -0.2977    1.4043   -6.9055 O.co2     1 ATP         0.3195
      4 O3G         1.5567    0.2228   -5.5917 O.co2     1 ATP         0.3195
      5 PB         -0.8007   -1.9512   -4.5841 P.3       1 ATP        -1.1062
      6 O1B        -1.9926   -1.9728   -3.6533 O.co2     1 ATP         0.3195
      7 O2B        -0.5347   -3.0905   -5.5425 O.co2     1 ATP         0.3195
      8 O3B        -0.8143   -0.5499   -5.4237 O.3       1 ATP         0.4672
      9 PA          1.2687   -2.6351   -2.5828 P.3       1 ATP        -1.1062
     10 O1A         1.8191   -3.8593   -3.2812 O.co2     1 ATP         0.3195
     11 O2A         0.3445   -2.7738   -1.3925 O.co2     1 ATP         0.3195
     12 O3A         0.5467   -1.6871   -3.7007 O.3       1 ATP         0.4672
     13 O5'         2.5245   -1.6648   -2.1878 O.3       1 ATP         0.1618
     14 C5'         2.2816   -0.2918   -1.9206 C.3       1 ATP         0.1504
     15 C4'         2.7248    0.0226   -0.4980 C.3       1 ATP         0.1111
     16 O4'         2.4697    1.4219   -0.2462 O.3       1 ATP        -0.1436
     17 C3'         1.9404   -0.7419    0.5596 C.3       1 ATP         0.1111
     18 O3'         2.7418   -0.8086    1.7389 O.3       1 ATP        -0.2728
     19 C2'         0.7477    0.1630    0.7858 C.3       1 ATP         0.1111
     20 O2'         0.1373   -0.0577    2.0407 O.3       1 ATP        -0.2728
     21 C1'         1.3733    1.5427    0.6747 C.3       1 ATP         0.2693
     22 N9          0.4520    2.5240    0.1767 N.pl3     1 ATP        -0.3222
     23 C8          0.5793    3.3338   -1.1209 C.ar      1 ATP         0.1640
     24 N7         -0.4807    4.1508   -1.2458 N.2       1 ATP        -0.1640
     25 C5         -1.1921    3.8572   -0.1126 C.ar      1 ATP         0.0820
     26 C6         -2.4855    4.5203    0.2163 C.ar      1 ATP         0.1640
     27 N6         -2.9873    5.4319   -0.6020 N.pl3     1 ATP        -0.4916
     28 N1         -3.0414    4.1119    1.3596 N.pl3     1 ATP        -0.4390
     29 C2         -2.4169    3.1071    2.1904 C.ar      1 ATP         0.5691
     30 N3         -1.2928    2.5191    1.9210 N.ar      1 ATP        -0.4283
     31 C4         -0.7202    2.9326    0.7534 C.ar      1 ATP         0.2226
     32 H5'1        2.8432    0.3119   -2.6398 H         1 ATP        -0.0393
     33 H5'2        1.2128   -0.0927   -2.0428 H         1 ATP        -0.0393
     34 H4'         3.8040   -0.1399   -0.4044 H         1 ATP        -0.0393
     35 H3'         1.6768   -1.7637    0.2732 H         1 ATP        -0.0393
     36 HO3'        3.5553   -1.2733    1.4913 H         1 ATP         0.2010
     37 H2'         0.0002   -0.0084   -0.0014 H         1 ATP        -0.0393
     38 HO2'        0.8091    0.1203    2.7213 H         1 ATP         0.2010
     39 H1'         1.7718    1.9211    1.6015 H         1 ATP        -0.0393
     40 H8          1.3565    3.3309   -1.8916 H         1 ATP         0.0000
     41 HN61       -2.4952    5.6785   -1.4487 H         1 ATP         0.2048
     42 HN62       -3.8637    5.8828   -0.3819 H         1 ATP         0.2048
     43 H2         -2.9911    2.8734    3.1000 H         1 ATP        -0.1292
     44 H44        -3.9253    4.5332    1.6302 H         1 ATP         0.2048
@<TRIPOS>BOND
     1    1    2 2
     2    1    3 1
     3    1    4 1
     4    1    8 1
     5    5    6 2
     6    5    7 1
     7    5    8 1
     8    5   12 1
     9    9   10 2
    10    9   11 1
    11    9   12 1
    12    9   13 1
    13   13   14 1
    14   14   15 1
    15   14   32 1
    16   14   33 1
    17   15   16 1
    18   15   17 1
    19   15   34 1
    20   16   21 1
    21   17   18 1
    22   17   19 1
    23   17   35 1
    24   18   36 1
    25   19   20 1
    26   19   21 1
    27   19   37 1
    28   20   38 1
    29   21   22 1
    30   21   39 1
    31   22   23 ar
    32   22   31 ar
    33   23   24 ar
    34   23   40 1
    35   24   25 ar
    36   25   26 ar
    37   25   31 ar
    38   26   27 1
    39   26   28 ar
    40   27   41 1
    41   27   42 1
    42   28   29 ar
    43   28   44 1
    44   29   30 ar
    45   29   43 1
    46   30   31 ar
@<TRIPOS>SUBSTRUCTURE
     1 ATP         1 GROUP 0 A     ****
@<TRIPOS>MOLECULE
[[[5-(6-amino-1,8-dihydropurine-6,8-diylium-7-id-9-yl)-3,4-dihydroxy-tetrahydrofuran-2-yl]methoxy-oxido-phosphoryl]oxy-oxido-phosphoryl] phosphate
   44    46     1     0     0
SMALL
USER_CHARGES

@<TRIPOS>ATOM
      1 PG          3.6545    4.7424   -5.5423 P.3       1 ATP        -1.1921
      2 O1G         4.2870    4.4076   -4.1956 O.co2     1 ATP         0.3195
      3 O2G         4.6113    4.6529   -6.7263 O.co2     1 ATP         0.3195
      4 O3G         2.7869    5.9967   -5.5320 O.co2     1 ATP         0.3195
      5 PB          1.2878    3.0530   -4.9106 P.3       1 ATP        -1.1062
      6 O1B         0.8273    4.2217   -4.0681 O.co2     1 ATP         0.3195
      7 O2B         0.3251    2.3055   -5.8059 O.co2     1 ATP         0.3195
      8 O3B         2.5769    3.5206   -5.7987 O.3       1 ATP         0.4672
      9 PA          2.8629    0.6171   -4.3271 P.3       1 ATP        -1.1062
     10 O1A         4.1195    1.0141   -5.0709 O.co2     1 ATP         0.3195
     11 O2A         1.8953   -0.3828   -4.9221 O.co2     1 ATP         0.3195
     12 O3A         2.0427    1.9769   -3.9423 O.3       1 ATP         0.4672
     13 O5'         3.2903    0.1346   -2.8241 O.3       1 ATP         0.1618
     14 C5'         2.2816   -0.2918   -1.9206 C.3       1 ATP         0.1504
     15 C4'         2.7248    0.0226   -0.4980 C.3       1 ATP         0.1111
     16 O4'         2.4697    1.4219   -0.2462 O.3       1 ATP        -0.1436
     17 C3'         1.9404   -0.7419    0.5596 C.3       1 ATP         0.1111
     18 O3'         2.7418   -0.8086    1.7389 O.3       1 ATP        -0.2728
     19 C2'         0.7477    0.1630    0.7858 C.3       1 ATP         0.1111
     20 O2'         0.1373   -0.0577    2.0407 O.3       1 ATP        -0.2728
     21 C1'         1.3733    1.5427    0.6747 C.3       1 ATP         0.2693
     22 N9          0.4520    2.5240    0.1767 N.pl3     1 ATP        -0.3222
     23 C8          0.5793    3.3338   -1.1209 C.ar      1 ATP         0.1640
     24 N7         -0.4807    4.1508   -1.2458 N.2       1 ATP        -0.1640
     25 C5         -1.1921    3.8572   -0.1126 C.ar      1 ATP         0.0820
     26 C6         -2.4855    4.5203    0.2163 C.ar      1 ATP         0.1640
     27 N6         -2.9873    5.4319   -0.6020 N.pl3     1 ATP        -0.4916
     28 N1         -3.0414    4.1119    1.3596 N.pl3     1 ATP        -0.4390
     29 C2         -2.4169    3.1071    2.1904 C.ar      1 ATP         0.5691
     30 N3         -1.2928    2.5191    1.9210 N.ar      1 ATP        -0.4283
     31 C4         -0.7202    2.9326    0.7534 C.ar      1 ATP         0.2226
     32 H5'1        1.3514    0.2330   -2.1577 H         1 ATP        -0.0393
     33 H5'2        2.1280   -1.3678   -2.0460 H         1 ATP        -0.0393
     34 H4'         3.8040   -0.1399   -0.4044 H         1 ATP        -0.0393
     35 H3'         1.6768   -1.7637    0.2732 H         1 ATP        -0.0393
     36 HO3'        2.9082    0.1071    2.0091 H         1 ATP         0.2010
     37 H2'         0.0002   -0.0084   -0.0014 H         1 ATP        -0.0393
     38 HO2'        0.8091    0.1203    2.7213 H         1 ATP         0.2010
     39 H1'         1.7718    1.9211    1.6015 H         1 ATP        -0.0393
     40 H8          1.3565    3.3309   -1.8916 H         1 ATP         0.0000
     41 HN61       -2.4952    5.6785   -1.4487 H         1 ATP         0.2048
     42 HN62       -3.8637    5.8828   -0.3819 H         1 ATP         0.2048
     43 H2         -2.9911    2.8734    3.1000 H         1 ATP        -0.1292
     44 H44        -3.9253    4.5332    1.6302 H         1 ATP         0.2048
@<TRIPOS>BOND
     1    1    2 2
     2    1    3 1
     3    1    4 1
     4    1    8 1
     5    5    6 2
     6    5    7 1
     7    5    8 1
     8    5   12 1
     9    9   10 2
    10    9   11 1
    11    9   12 1
    12    9   13 1
    13   13   14 1
    14   14   15 1
    15   14   32 1
    16   14   33 1
    17   15   16 1
    18   15   17 1
    19   15   34 1
    20   16   21 1
    21   17   18 1
    22   17   19 1
    23   17   35 1
    24   18   36 1
    25   19   20 1
    26   19   21 1
    27   19   37 1
    28   20   38 1
    29   21   22 1
    30   21   39 1
    31   22   23 ar
    32   22   31 ar
    33   23   24 ar
    34   23   40 1
    35   24   25 ar
    36   25   26 ar
    37   25   31 ar
    38   26   27 1
    39   26   28 ar
    40   27   41 1
    41   27   42 1
    42   28   29 ar
    43   28   44 1
    44   29   30 ar
    45   29   43 1
    46   30   31 ar
@<TRIPOS>SUBSTRUCTURE
     1 ATP         1 GROUP 0 A     ****
@<TRIPOS>MOLECULE
[[[5-(6-amino-1,8-dihydropurine-6,8-diylium-7-id-9-yl)-3,4-dihydroxy-tetrahydrofuran-2-yl]methoxy-oxido-phosphoryl]oxy-oxido-phosphoryl] phosphate
   44    46     1     0     0
SMALL
USER_CHARGES

@<TRIPOS>ATOM
      1 PG          6.7989    1.6404    0.4362 P.3       1 ATP        -1.1921
      2 O1G         5.3440    1.9649    0.1140 O.co2     1 ATP         0.3195
      3 O2G         7.0742    1.3862    1.9144 O.co2     1 ATP         0.3195
      4 O3G         7.8101    2.5606   -0.2397 O.co2     1 ATP         0.3195
      5 PB          6.9376   -0.2571   -1.8516 P.3       1 ATP        -1.1062
      6 O1B         7.7750    0.6886   -2.6835 O.co2     1 ATP         0.3195
      7 O2B         7.1119   -1.7558   -1.9560 O.co2     1 ATP         0.3195
      8 O3B         7.0562    0.1780   -0.2813 O.3       1 ATP         0.4672
      9 PA          4.4374   -0.0458   -3.4198 P.3       1 ATP        -1.1062
     10 O1A         4.2717   -1.5190   -3.7229 O.co2     1 ATP         0.3195
     11 O2A         4.9542    0.9076   -4.4752 O.co2     1 ATP         0.3195
     12 O3A         5.3616    0.1021   -2.0805 O.3       1 ATP         0.4672
     13 O5'         3.0213    0.5153   -2.8245 O.3       1 ATP         0.1618
     14 C5'         2.2816   -0.2918   -1.9206 C.3       1 ATP         0.1504
     15 C4'         2.7248    0.0226   -0.4980 C.3       1 ATP         0.1111
     16 O4'         2.4697    1.4219   -0.2462 O.3       1 ATP        -0.1436
     17 C3'         1.9404   -0.7419    0.5596 C.3       1 ATP         0.1111
     18 O3'         2.7418   -0.8086    1.7389 O.3       1 ATP        -0.2728
     19 C2'         0.7477    0.1630    0.7858 C.3       1 ATP         0.1111
     20 O2'         0.1373   -0.0577    2.0407 O.3       1 ATP        -0.2728
     21 C1'         1.3733    1.5427    0.6747 C.3       1 ATP         0.2693
     22 N9          0.4520    2.5240    0.1767 N.pl3     1 ATP        -0.3222
     23 C8         -0.7463    2.2774   -0.7501 C.ar      1 ATP         0.1640
     24 N7         -1.3714    3.4419   -0.9948 N.2       1 ATP        -0.1640
     25 C5         -0.6104    4.3223   -0.2723 C.ar      1 ATP         0.0820
     26 C6         -0.9062    5.7820   -0.2194 C.ar      1 ATP         0.1640
     27 N6         -1.9385    6.2713   -0.8881 N.pl3     1 ATP        -0.4916
     28 N1         -0.0613    6.4906    0.5336 N.pl3     1 ATP        -0.4390
     29 C2          1.0416    5.8662    1.2291 C.ar      1 ATP         0.5691
     30 N3          1.3146    4.5989    1.1954 N.ar      1 ATP        -0.4283
     31 C4          0.4541    3.8697    0.4273 C.ar      1 ATP         0.2226
     32 H5'1        1.2163   -0.0770   -2.0471 H         1 ATP        -0.0393
     33 H5'2        2.4655   -1.3443   -2.1563 H         1 ATP        -0.0393
     34 H4'         3.8040   -0.1399   -0.4044 H         1 ATP        -0.0393
     35 H3'         1.6768   -1.7637    0.2732 H         1 ATP        -0.0393
     36 HO3'        2.2231   -1.2979    2.3952 H         1 ATP         0.2010
     37 H2'         0.0002   -0.0084   -0.0014 H         1 ATP        -0.0393
     38 HO2'       -0.1554   -0.9852    2.0577 H         1 ATP         0.2010
     39 H1'         1.7718    1.9211    1.6015 H         1 ATP        -0.0393
     40 H8         -1.1244    1.3534   -1.1987 H         1 ATP         0.0000
     41 HN61       -2.5259    5.6573   -1.4336 H         1 ATP         0.2048
     42 HN62       -2.1416    7.2600   -0.8539 H         1 ATP         0.2048
     43 H2          1.6509    6.5764    1.8088 H         1 ATP        -0.1292
     44 H44        -0.2190    7.4917    0.6033 H         1 ATP         0.2048
@<TRIPOS>BOND
     1    1    2 2
     2    1    3 1
     3    1    4 1
     4    1    8 1
     5    5    6 2
     6    5    7 1
     7    5    8 1
     8    5   12 1
     9    9   10 2
    10    9   11 1
    11    9   12 1
    12    9   13 1
    13   13   14 1
    14   14   15 1
    15   14   32 1
    16   14   33 1
    17   15   16 1
    18   15   17 1
    19   15   34 1
    20   16   21 1
    21   17   18 1
    22   17   19 1
    23   17   35 1
    24   18   36 1
    25   19   20 1
    26   19   21 1
    27   19   37 1
    28   20   38 1
    29   21   22 1
    30   21   39 1
    31   22   23 ar
    32   22   31 ar
    33   23   24 ar
    34   23   40 1
    35   24   25 ar
    36   25   26 ar
    37   25   31 ar
    38   26   27 1
    39   26   28 ar
    40   27   41 1
    41   27   42 1
    42   28   29 ar
    43   28   44 1
    44   29   30 ar
    45   29   43 1
    46   30   31 ar
@<TRIPOS>SUBSTRUCTURE
     1 ATP         1 GROUP 0 A     ****
@<TRIPOS>MOLECULE
[[[5-(6-amino-1,8-dihydropurine-6,8-diylium-7-id-9-yl)-3,4-dihydroxy-tetrahydrofuran-2-yl]methoxy-oxido-phosphoryl]oxy-oxido-phosphoryl] phosphate
   44    46     1     0     0
SMALL
USER_CHARGES

@<TRIPOS>ATOM
      1 PG          8.0697   -2.9858   -2.2076 P.3       1 ATP        -1.1921
      2 O1G         8.5969   -2.9833   -0.7765 O.co2     1 ATP         0.3195
      3 O2G         7.3632   -4.2743   -2.6154 O.co2     1 ATP         0.3195
      4 O3G         9.0612   -2.4614   -3.2410 O.co2     1 ATP         0.3195
      5 PB          6.9376   -0.2571   -1.8516 P.3       1 ATP        -1.1062
      6 O1B         7.2630   -0.0924   -0.3837 O.co2     1 ATP         0.3195
      7 O2B         7.7523    0.4411   -2.9175 O.co2     1 ATP         0.3195
      8 O3B         6.8722   -1.8519   -2.2001 O.3       1 ATP         0.4672
      9 PA          4.4374   -0.0458   -3.4198 P.3       1 ATP        -1.1062
     10 O1A         4.2717   -1.5190   -3.7229 O.co2     1 ATP         0.3195
     11 O2A         4.9542    0.9076   -4.4752 O.co2     1 ATP         0.3195
     12 O3A         5.3616    0.1021   -2.0805 O.3       1 ATP         0.4672
     13 O5'         3.0213    0.5153   -2.8245 O.3       1 ATP         0.1618
     14 C5'         2.2816   -0.2918   -1.9206 C.3       1 ATP         0.1504
     15 C4'         2.7248    0.0226   -0.4980 C.3       1 ATP         0.1111
     16 O4'         2.4697    1.4219   -0.2462 O.3       1 ATP        -0.1436
     17 C3'         1.9404   -0.7419    0.5596 C.3       1 ATP         0.1111
     18 O3'         2.7418   -0.8086    1.7389 O.3       1 ATP        -0.2728
     19 C2'         0.7477    0.1630    0.7858 C.3       1 ATP         0.1111
     20 O2'         0.1373   -0.0577    2.0407 O.3       1 ATP        -0.2728
     21 C1'         1.3733    1.5427    0.6747 C.3       1 ATP         0.2693
     22 N9          0.4520    2.5240    0.1767 N.pl3     1 ATP        -0.3222
     23 C8         -0.7463    2.2774   -0.7501 C.ar      1 ATP         0.1640
     24 N7         -1.3714    3.4419   -0.9948 N.2       1 ATP        -0.1640
     25 C5         -0.6104    4.3223   -0.2723 C.ar      1 ATP         0.0820
     26 C6         -0.9062    5.7820   -0.2194 C.ar      1 ATP         0.1640
     27 N6         -1.9385    6.2713   -0.8881 N.pl3     1 ATP        -0.4916
     28 N1         -0.0613    6.4906    0.5336 N.pl3     1 ATP        -0.4390
     29 C2          1.0416    5.8662    1.2291 C.ar      1 ATP         0.5691
     30 N3          1.3146    4.5989    1.1954 N.ar      1 ATP        -0.4283
     31 C4          0.4541    3.8697    0.4273 C.ar      1 ATP         0.2226
     32 H5'1        1.2163   -0.0770   -2.0471 H         1 ATP        -0.0393
     33 H5'2        2.4655   -1.3443   -2.1563 H         1 ATP        -0.0393
     34 H4'         3.8040   -0.1399   -0.4044 H         1 ATP        -0.0393
     35 H3'         1.6768   -1.7637    0.2732 H         1 ATP        -0.0393
     36 HO3'        2.2231   -1.2979    2.3952 H         1 ATP         0.2010
     37 H2'         0.0002   -0.0084   -0.0014 H         1 ATP        -0.0393
     38 HO2'       -0.6132    0.5577    2.1063 H         1 ATP         0.2010
     39 H1'         1.7718    1.9211    1.6015 H         1 ATP        -0.0393
     40 H8         -1.1244    1.3534   -1.1987 H         1 ATP         0.0000
     41 HN61       -2.5259    5.6573   -1.4336 H         1 ATP         0.2048
     42 HN62       -2.1416    7.2600   -0.8539 H         1 ATP         0.2048
     43 H2          1.6509    6.5764    1.8088 H         1 ATP        -0.1292
     44 H44        -0.2190    7.4917    0.6033 H         1 ATP         0.2048
@<TRIPOS>BOND
     1    1    2 2
     2    1    3 1
     3    1    4 1
     4    1    8 1
     5    5    6 2
     6    5    7 1
     7    5    8 1
     8    5   12 1
     9    9   10 2
    10    9   11 1
    11    9   12 1
    12    9   13 1
    13   13   14 1
    14   14   15 1
    15   14   32 1
    16   14   33 1
    17   15   16 1
    18   15   17 1
    19   15   34 1
    20   16   21 1
    21   17   18 1
    22   17   19 1
    23   17   35 1
    24   18   36 1
    25   19   20 1
    26   19   21 1
    27   19   37 1
    28   20   38 1
    29   21   22 1
    30   21   39 1
    31   22   23 ar
    32   22   31 ar
    33   23   24 ar
    34   23   40 1
    35   24   25 ar
    36   25   26 ar
    37   25   31 ar
    38   26   27 1
    39   26   28 ar
    40   27   41 1
    41   27   42 1
    42   28   29 ar
    43   28   44 1
    44   29   30 ar
    45   29   43 1
    46   30   31 ar
@<TRIPOS>SUBSTRUCTURE
     1 ATP         1 GROUP 0 A     ****
@<TRIPOS>MOLECULE
[[[5-(6-amino-1,8-dihydropurine-6,8-diylium-7-id-9-yl)-3,4-dihydroxy-tetrahydrofuran-2-yl]methoxy-oxido-phosphoryl]oxy-oxido-phosphoryl] phosphate
   44    46     1     0     0
SMALL
USER_CHARGES

@<TRIPOS>ATOM
      1 PG          1.7297    4.0581   -7.3290 P.3       1 ATP        -1.1921
      2 O1G         1.7374    5.4474   -6.7000 O.co2     1 ATP         0.3195
      3 O2G         2.9563    3.7459   -8.1797 O.co2     1 ATP         0.3195
      4 O3G         0.4041    3.6713   -7.9764 O.co2     1 ATP         0.3195
      5 PB          0.8726    2.8387   -4.7537 P.3       1 ATP        -1.1062
      6 O1B         0.9298    4.0909   -3.9074 O.co2     1 ATP         0.3195
      7 O2B        -0.4477    2.2727   -5.2267 O.co2     1 ATP         0.3195
      8 O3B         1.8551    3.0311   -6.0447 O.3       1 ATP         0.4672
      9 PA          3.2351    1.6560   -3.4214 P.3       1 ATP        -1.1062
     10 O1A         3.3085    2.6225   -2.2594 O.co2     1 ATP         0.3195
     11 O2A         4.1915    1.7751   -4.5880 O.co2     1 ATP         0.3195
     12 O3A         1.7049    1.6571   -3.9944 O.3       1 ATP         0.4672
     13 O5'         3.2903    0.1346   -2.8241 O.3       1 ATP         0.1618
     14 C5'         2.2816   -0.2918   -1.9206 C.3       1 ATP         0.1504
     15 C4'         2.7248    0.0226   -0.4980 C.3       1 ATP         0.1111
     16 O4'         2.4697    1.4219   -0.2462 O.3       1 ATP        -0.1436
     17 C3'         1.9404   -0.7419    0.5596 C.3       1 ATP         0.1111
     18 O3'         2.7418   -0.8086    1.7389 O.3       1 ATP        -0.2728
     19 C2'         0.7477    0.1630    0.7858 C.3       1 ATP         0.1111
     20 O2'         0.1373   -0.0577    2.0407 O.3       1 ATP        -0.2728
     21 C1'         1.3733    1.5427    0.6747 C.3       1 ATP         0.2693
     22 N9          0.4520    2.5240    0.1767 N.pl3     1 ATP        -0.3222
     23 C8         -1.0247    2.3053   -0.1800 C.ar      1 ATP         0.1640
     24 N7         -1.5580    3.4612   -0.6116 N.2       1 ATP        -0.1640
     25 C5         -0.4873    4.3110   -0.5222 C.ar      1 ATP         0.0820
     26 C6         -0.5728    5.7505   -0.8981 C.ar      1 ATP         0.1640
     27 N6         -1.7163    6.2514   -1.3385 N.pl3     1 ATP        -0.4916
     28 N1          0.5667    6.4301   -0.7475 N.pl3     1 ATP        -0.4390
     29 C2          1.7697    5.7952   -0.2579 C.ar      1 ATP         0.5691
     30 N3          1.8633    4.5450    0.0742 N.ar      1 ATP        -0.4283
     31 C4          0.7014    3.8457   -0.0776 C.ar      1 ATP         0.2226
     32 H5'1        1.3514    0.2330   -2.1577 H         1 ATP        -0.0393
     33 H5'2        2.1280   -1.3678   -2.0460 H         1 ATP        -0.0393
     34 H4'         3.8040   -0.1399   -0.4044 H         1 ATP        -0.0393
     35 H3'         1.6768   -1.7637    0.2732 H         1 ATP        -0.0393
     36 HO3'        2.2231   -1.2979    2.3952 H         1 ATP         0.2010
     37 H2'         0.0002   -0.0084   -0.0014 H         1 ATP        -0.0393
     38 HO2'       -0.1554   -0.9852    2.0577 H         1 ATP         0.2010
     39 H1'         1.7718    1.9211    1.6015 H         1 ATP        -0.0393
     40 H8         -1.6458    1.4054   -0.1318 H         1 ATP         0.0000
     41 HN61       -2.5307    5.6598   -1.4199 H         1 ATP         0.2048
     42 HN62       -1.7773    7.2266   -1.5938 H         1 ATP         0.2048
     43 H2          2.6279    6.4808   -0.1872 H         1 ATP        -0.1292
     44 H44         0.5621    7.4166   -0.9900 H         1 ATP         0.2048
@<TRIPOS>BOND
     1    1    2 2
     2    1    3 1
     3    1    4 1
     4    1    8 1
     5    5    6 2
     6    5    7 1
     7    5    8 1
     8    5   12 1
     9    9   10 2
    10    9   11 1
    11    9   12 1
    12    9   13 1
    13   13   14 1
    14   14   15 1
    15   14   32 1
    16   14   33 1
    17   15   16 1
    18   15   17 1
    19   15   34 1
    20   16   21 1
    21   17   18 1
    22   17   19 1
    23   17   35 1
    24   18   36 1
    25   19   20 1
    26   19   21 1
    27   19   37 1
    28   20   38 1
    29   21   22 1
    30   21   39 1
    31   22   23 ar
    32   22   31 ar
    33   23   24 ar
    34   23   40 1
    35   24   25 ar
    36   25   26 ar
    37   25   31 ar
    38   26   27 1
    39   26   28 ar
    40   27   41 1
    41   27   42 1
    42   28   29 ar
    43   28   44 1
    44   29   30 ar
    45   29   43 1
    46   30   31 ar
@<TRIPOS>SUBSTRUCTURE
     1 ATP         1 GROUP 0 A     ****
@<TRIPOS>MOLECULE
[[[5-(6-amino-1,8-dihydropurine-6,8-diylium-7-id-9-yl)-3,4-dihydroxy-tetrahydrofuran-2-yl]methoxy-oxido-phosphoryl]oxy-oxido-phosphoryl] phosphate
   44    46     1     0     0
SMALL
USER_CHARGES

@<TRIPOS>ATOM
      1 PG          6.5632   -4.7650   -0.5050 P.3       1 ATP        -1.1921
      2 O1G         5.1870   -4.6072    0.1331 O.co2     1 ATP         0.3195
      3 O2G         6.7257   -6.0270   -1.3456 O.co2     1 ATP         0.3195
      4 O3G         7.7273   -4.4885    0.4407 O.co2     1 ATP         0.3195
      5 PB          6.5441   -1.9199   -1.3762 P.3       1 ATP        -1.1062
      6 O1B         6.9158   -1.6029    0.0553 O.co2     1 ATP         0.3195
      7 O2B         7.2237   -1.2240   -2.5343 O.co2     1 ATP         0.3195
      8 O3B         6.6452   -3.5350   -1.6005 O.3       1 ATP         0.4672
      9 PA          3.9665   -2.1124   -2.8163 P.3       1 ATP        -1.1062
     10 O1A         3.9564   -3.6144   -2.9990 O.co2     1 ATP         0.3195
     11 O2A         4.3219   -1.1957   -3.9667 O.co2     1 ATP         0.3195
     12 O3A         4.9284   -1.7562   -1.5445 O.3       1 ATP         0.4672
     13 O5'         2.5245   -1.6648   -2.1878 O.3       1 ATP         0.1618
     14 C5'         2.2816   -0.2918   -1.9206 C.3       1 ATP         0.1504
     15 C4'         2.7248    0.0226   -0.4980 C.3       1 ATP         0.1111
     16 O4'         2.4697    1.4219   -0.2462 O.3       1 ATP        -0.1436
     17 C3'         1.9404   -0.7419    0.5596 C.3       1 ATP         0.1111
     18 O3'         2.7418   -0.8086    1.7389 O.3       1 ATP        -0.2728
     19 C2'         0.7477    0.1630    0.7858 C.3       1 ATP         0.1111
     20 O2'         0.1373   -0.0577    2.0407 O.3       1 ATP        -0.2728
     21 C1'         1.3733    1.5427    0.6747 C.3       1 ATP         0.2693
     22 N9          0.4520    2.5240    0.1767 N.pl3     1 ATP        -0.3222
     23 C8          0.5793    3.3338   -1.1209 C.ar      1 ATP         0.1640
     24 N7         -0.4807    4.1508   -1.2458 N.2       1 ATP        -0.1640
     25 C5         -1.1921    3.8572   -0.1126 C.ar      1 ATP         0.0820
     26 C6         -2.4855    4.5203    0.2163 C.ar      1 ATP         0.1640
     27 N6         -2.9873    5.4319   -0.6020 N.pl3     1 ATP        -0.4916
     28 N1         -3.0414    4.1119    1.3596 N.pl3     1 ATP        -0.4390
     29 C2         -2.4169    3.1071    2.1904 C.ar      1 ATP         0.5691
     30 N3         -1.2928    2.5191    1.9210 N.ar      1 ATP        -0.4283
     31 C4         -0.7202    2.9326    0.7534 C.ar      1 ATP         0.2226
     32 H5'1        2.8432    0.3119   -2.6398 H         1 ATP        -0.0393
     33 H5'2        1.2128   -0.0927   -2.0428 H         1 ATP        -0.0393
     34 H4'         3.8040   -0.1399   -0.4044 H         1 ATP        -0.0393
     35 H3'         1.6768   -1.7637    0.2732 H         1 ATP        -0.0393
     36 HO3'        3.5553   -1.2733    1.4913 H         1 ATP         0.2010
     37 H2'         0.0002   -0.0084   -0.0014 H         1 ATP        -0.0393
     38 HO2'        0.8091    0.1203    2.7213 H         1 ATP         0.2010
     39 H1'         1.7718    1.9211    1.6015 H         1 ATP        -0.0393
     40 H8          1.3565    3.3309   -1.8916 H         1 ATP         0.0000
     41 HN61       -2.4952    5.6785   -1.4487 H         1 ATP         0.2048
     42 HN62       -3.8637    5.8828   -0.3819 H         1 ATP         0.2048
     43 H2         -2.9911    2.8734    3.1000 H         1 ATP        -0.1292
     44 H44        -3.9253    4.5332    1.6302 H         1 ATP         0.2048
@<TRIPOS>BOND
     1    1    2 2
     2    1    3 1
     3    1    4 1
     4    1    8 1
     5    5    6 2
     6    5    7 1
     7    5    8 1
     8    5   12 1
     9    9   10 2
    10    9   11 1
    11    9   12 1
    12    9   13 1
    13   13   14 1
    14   14   15 1
    15   14   32 1
    16   14   33 1
    17   15   16 1
    18   15   17 1
    19   15   34 1
    20   16   21 1
    21   17   18 1
    22   17   19 1
    23   17   35 1
    24   18   36 1
    25   19   20 1
    26   19   21 1
    27   19   37 1
    28   20   38 1
    29   21   22 1
    30   21   39 1
    31   22   23 ar
    32   22   31 ar
    33   23   24 ar
    34   23   40 1
    35   24   25 ar
    36   25   26 ar
    37   25   31 ar
    38   26   27 1
    39   26   28 ar
    40   27   41 1
    41   27   42 1
    42   28   29 ar
    43   28   44 1
    44   29   30 ar
    45   29   43 1
    46   30   31 ar
@<TRIPOS>SUBSTRUCTURE
     1 ATP         1 GROUP 0 A     ****
@<TRIPOS>MOLECULE
[[[5-(6-amino-1,8-dihydropurine-6,8-diylium-7-id-9-yl)-3,4-dihydroxy-tetrahydrofuran-2-yl]methoxy-oxido-phosphoryl]oxy-oxido-phosphoryl] phosphate
   44    46     1     0     0
SMALL
USER_CHARGES

@<TRIPOS>ATOM
      1 PG          7.2250   -3.9847   -3.2754 P.3       1 ATP        -1.1921
      2 O1G         8.0667   -3.6542   -4.5035 O.co2     1 ATP         0.3195
      3 O2G         7.8926   -3.6482   -1.9462 O.co2     1 ATP         0.3195
      4 O3G         6.5711   -5.3619   -3.3165 O.co2     1 ATP         0.3195
      5 PB          4.8195   -2.7620   -4.5293 P.3       1 ATP        -1.1062
      6 O1B         5.4876   -2.2373   -5.7807 O.co2     1 ATP         0.3195
      7 O2B         3.9559   -4.0032   -4.5642 O.co2     1 ATP         0.3195
      8 O3B         5.9510   -2.9412   -3.3646 O.3       1 ATP         0.4672
      9 PA          4.4374   -0.0458   -3.4198 P.3       1 ATP        -1.1062
     10 O1A         4.7594    0.7272   -4.6801 O.co2     1 ATP         0.3195
     11 O2A         5.4485   -0.1536   -2.2990 O.co2     1 ATP         0.3195
     12 O3A         3.9643   -1.5503   -3.8469 O.3       1 ATP         0.4672
     13 O5'         3.0213    0.5153   -2.8245 O.3       1 ATP         0.1618
     14 C5'         2.2816   -0.2918   -1.9206 C.3       1 ATP         0.1504
     15 C4'         2.7248    0.0226   -0.4980 C.3       1 ATP         0.1111
     16 O4'         2.4697    1.4219   -0.2462 O.3       1 ATP        -0.1436
     17 C3'         1.9404   -0.7419    0.5596 C.3       1 ATP         0.1111
     18 O3'         2.7418   -0.8086    1.7389 O.3       1 ATP        -0.2728
     19 C2'         0.7477    0.1630    0.7858 C.3       1 ATP         0.1111
     20 O2'         0.1373   -0.0577    2.0407 O.3       1 ATP        -0.2728
     21 C1'         1.3733    1.5427    0.6747 C.3       1 ATP         0.2693
     22 N9          0.4520    2.5240    0.1767 N.pl3     1 ATP        -0.3222
     23 C8         -0.7463    2.2774   -0.7501 C.ar      1 ATP         0.1640
     24 N7         -1.3714    3.4419   -0.9948 N.2       1 ATP        -0.1640
     25 C5         -0.6104    4.3223   -0.2723 C.ar      1 ATP         0.0820
     26 C6         -0.9062    5.7820   -0.2194 C.ar      1 ATP         0.1640
     27 N6         -1.9385    6.2713   -0.8881 N.pl3     1 ATP        -0.4916
     28 N1         -0.0613    6.4906    0.5336 N.pl3     1 ATP        -0.4390
     29 C2          1.0416    5.8662    1.2291 C.ar      1 ATP         0.5691
     30 N3          1.3146    4.5989    1.1954 N.ar      1 ATP        -0.4283
     31 C4          0.4541    3.8697    0.4273 C.ar      1 ATP         0.2226
     32 H5'1        1.2163   -0.0770   -2.0471 H         1 ATP        -0.0393
     33 H5'2        2.4655   -1.3443   -2.1563 H         1 ATP        -0.0393
     34 H4'         3.8040   -0.1399   -0.4044 H         1 ATP        -0.0393
     35 H3'         1.6768   -1.7637    0.2732 H         1 ATP        -0.0393
     36 HO3'        2.2231   -1.2979    2.3952 H         1 ATP         0.2010
     37 H2'         0.0002   -0.0084   -0.0014 H         1 ATP        -0.0393
     38 HO2'       -0.6132    0.5577    2.1063 H         1 ATP         0.2010
     39 H1'         1.7718    1.9211    1.6015 H         1 ATP        -0.0393
     40 H8         -1.1244    1.3534   -1.1987 H         1 ATP         0.0000
     41 HN61       -2.5259    5.6573   -1.4336 H         1 ATP         0.2048
     42 HN62       -2.1416    7.2600   -0.8539 H         1 ATP         0.2048
     43 H2          1.6509    6.5764    1.8088 H         1 ATP        -0.1292
     44 H44        -0.2190    7.4917    0.6033 H         1 ATP         0.2048
@<TRIPOS>BOND
     1    1    2 2
     2    1    3 1
     3    1    4 1
     4    1    8 1
     5    5    6 2
     6    5    7 1
     7    5    8 1
     8    5   12 1
     9    9   10 2
    10    9   11 1
    11    9   12 1
    12    9   13 1
    13   13   14 1
    14   14   15 1
    15   14   32 1
    16   14   33 1
    17   15   16 1
    18   15   17 1
    19   15   34 1
    20   16   21 1
    21   17   18 1
    22   17   19 1
    23   17   35 1
    24   18   36 1
    25   19   20 1
    26   19   21 1
    27   19   37 1
    28   20   38 1
    29   21   22 1
    30   21   39 1
    31   22   23 ar
    32   22   31 ar
    33   23   24 ar
    34   23   40 1
    35   24   25 ar
    36   25   26 ar
    37   25   31 ar
    38   26   27 1
    39   26   28 ar
    40   27   41 1
    41   27   42 1
    42   28   29 ar
    43   28   44 1
    44   29   30 ar
    45   29   43 1
    46   30   31 ar
@<TRIPOS>SUBSTRUCTURE
     1 ATP         1 GROUP 0 A     ****
@<TRIPOS>MOLECULE
[[[5-(6-amino-1,8-dihydropurine-6,8-diylium-7-id-9-yl)-3,4-dihydroxy-tetrahydrofuran-2-yl]methoxy-oxido-phosphoryl]oxy-oxido-phosphoryl] phosphate
   44    46     1     0     0
SMALL
USER_CHARGES

@<TRIPOS>ATOM
      1 PG          0.3105    5.4953   -3.5369 P.3       1 ATP        -1.1921
      2 O1G        -1.1893    5.2957   -3.7278 O.co2     1 ATP         0.3195
      3 O2G         0.7046    6.0262   -2.1627 O.co2     1 ATP         0.3195
      4 O3G         1.0020    6.1971   -4.7010 O.co2     1 ATP         0.3195
      5 PB          0.8726    2.8387   -4.7537 P.3       1 ATP        -1.1062
      6 O1B        -0.5605    2.3870   -4.9255 O.co2     1 ATP         0.3195
      7 O2B         1.6876    3.3236   -5.9318 O.co2     1 ATP         0.3195
      8 O3B         0.9305    3.9675   -3.5740 O.3       1 ATP         0.4672
      9 PA          3.2351    1.6560   -3.4214 P.3       1 ATP        -1.1062
     10 O1A         3.3085    2.6225   -2.2594 O.co2     1 ATP         0.3195
     11 O2A         4.1915    1.7751   -4.5880 O.co2     1 ATP         0.3195
     12 O3A         1.7049    1.6571   -3.9944 O.3       1 ATP         0.4672
     13 O5'         3.2903    0.1346   -2.8241 O.3       1 ATP         0.1618
     14 C5'         2.2816   -0.2918   -1.9206 C.3       1 ATP         0.1504
     15 C4'         2.7248    0.0226   -0.4980 C.3       1 ATP         0.1111
     16 O4'         2.4697    1.4219   -0.2462 O.3       1 ATP        -0.1436
     17 C3'         1.9404   -0.7419    0.5596 C.3       1 ATP         0.1111
     18 O3'         2.7418   -0.8086    1.7389 O.3       1 ATP        -0.2728
     19 C2'         0.7477    0.1630    0.7858 C.3       1 ATP         0.1111
     20 O2'         0.1373   -0.0577    2.0407 O.3       1 ATP        -0.2728
     21 C1'         1.3733    1.5427    0.6747 C.3       1 ATP         0.2693
     22 N9          0.4520    2.5240    0.1767 N.pl3     1 ATP        -0.3222
     23 C8         -0.3054    2.4845   -1.1576 C.ar      1 ATP         0.1640
     24 N7         -1.0755    3.5806   -1.2691 N.2       1 ATP        -0.1640
     25 C5         -0.8043    4.2306   -0.0942 C.ar      1 ATP         0.0820
     26 C6         -1.4324    5.5335    0.2646 C.ar      1 ATP         0.1640
     27 N6         -2.2885    6.1054   -0.5675 N.pl3     1 ATP        -0.4916
     28 N1         -1.0537    6.0229    1.4478 N.pl3     1 ATP        -0.4390
     29 C2         -0.1096    5.3242    2.2908 C.ar      1 ATP         0.5691
     30 N3          0.4468    4.1904    1.9960 N.ar      1 ATP        -0.4283
     31 C4          0.0631    3.6855    0.7877 C.ar      1 ATP         0.2226
     32 H5'1        1.3514    0.2330   -2.1577 H         1 ATP        -0.0393
     33 H5'2        2.1280   -1.3678   -2.0460 H         1 ATP        -0.0393
     34 H4'         3.8040   -0.1399   -0.4044 H         1 ATP        -0.0393
     35 H3'         1.6768   -1.7637    0.2732 H         1 ATP        -0.0393
     36 HO3'        3.5553   -1.2733    1.4913 H         1 ATP         0.2010
     37 H2'         0.0002   -0.0084   -0.0014 H         1 ATP        -0.0393
     38 HO2'       -0.6132    0.5577    2.1063 H         1 ATP         0.2010
     39 H1'         1.7718    1.9211    1.6015 H         1 ATP        -0.0393
     40 H8         -0.2991    1.7413   -1.9611 H         1 ATP         0.0000
     41 HN61       -2.5167    5.6603   -1.4447 H         1 ATP         0.2048
     42 HN62       -2.7159    6.9882   -0.3270 H         1 ATP         0.2048
     43 H2          0.1059    5.8491    3.2340 H         1 ATP        -0.1292
     44 H44        -1.4532    6.9099    1.7401 H         1 ATP         0.2048
@<TRIPOS>BOND
     1    1    2 2
     2    1    3 1
     3    1    4 1
     4    1    8 1
     5    5    6 2
     6    5    7 1
     7    5    8 1
     8    5   12 1
     9    9   10 2
    10    9   11 1
    11    9   12 1
    12    9   13 1
    13   13   14 1
    14   14   15 1
    15   14   32 1
    16   14   33 1
    17   15   16 1
    18   15   17 1
    19   15   34 1
    20   16   21 1
    21   17   18 1
    22   17   19 1
    23   17   35 1
    24   18   36 1
    25   19   20 1
    26   19   21 1
    27   19   37 1
    28   20   38 1
    29   21   22 1
    30   21   39 1
    31   22   23 ar
    32   22   31 ar
    33   23   24 ar
    34   23   40 1
    35   24   25 ar
    36   25   26 ar
    37   25   31 ar
    38   26   27 1
    39   26   28 ar
    40   27   41 1
    41   27   42 1
    42   28   29 ar
    43   28   44 1
    44   29   30 ar
    45   29   43 1
    46   30   31 ar
@<TRIPOS>SUBSTRUCTURE
     1 ATP         1 GROUP 0 A     ****
@<TRIPOS>MOLECULE
[[[5-(6-amino-1,8-dihydropurine-6,8-diylium-7-id-9-yl)-3,4-dihydroxy-tetrahydrofuran-2-yl]methoxy-oxido-phosphoryl]oxy-oxido-phosphoryl] phosphate
   44    46     1     0     0
SMALL
USER_CHARGES

@<TRIPOS>ATOM
      1 PG          2.5732   -4.2441    5.3711 P.3       1 ATP        -1.1921
      2 O1G         1.8999   -4.0172    6.7206 O.co2     1 ATP         0.3195
      3 O2G         4.0770   -3.9907    5.3680 O.co2     1 ATP         0.3195
      4 O3G         1.8319   -3.6268    4.1898 O.co2     1 ATP         0.3195
      5 PB          1.1011   -6.8043    5.0074 P.3       1 ATP        -1.1062
      6 O1B         1.5180   -8.1995    4.5986 O.co2     1 ATP         0.3195
      7 O2B         0.2399   -6.5702    6.2284 O.co2     1 ATP         0.3195
      8 O3B         2.4353   -5.8678    5.1175 O.3       1 ATP         0.4672
      9 PA         -1.0041   -6.4128    2.9654 P.3       1 ATP        -1.1062
     10 O1A        -2.1440   -6.1142    3.9146 O.co2     1 ATP         0.3195
     11 O2A        -0.8832   -7.7687    2.3044 O.co2     1 ATP         0.3195
     12 O3A         0.4009   -6.0725    3.7269 O.3       1 ATP         0.4672
     13 O5'        -0.9724   -5.2440    1.8220 O.3       1 ATP         0.1618
     14 C5'        -0.7840   -3.8935    2.2172 C.3       1 ATP         0.1504
     15 C4'        -0.0724   -3.1466    1.1027 C.3       1 ATP         0.1111
     16 O4'        -0.8674   -3.1929   -0.0945 O.3       1 ATP        -0.1436
     17 C3'         0.1338   -1.6715    1.4027 C.3       1 ATP         0.1111
     18 O3'         1.2893   -1.4445    2.1808 O.3       1 ATP        -0.2728
     19 C2'         0.2158   -1.0724    0.0128 C.3       1 ATP         0.1111
     20 O2'         1.5141   -1.2448   -0.5513 O.3       1 ATP        -0.2728
     21 C1'        -0.7897   -1.9176   -0.7583 C.3       1 ATP         0.2693
     22 N9         -2.1040   -1.3333   -0.7704 N.pl3     1 ATP        -0.3222
     23 C8         -3.2124   -1.5345    0.2719 C.ar      1 ATP         0.1640
     24 N7         -4.2964   -0.8234   -0.0828 N.2       1 ATP        -0.1640
     25 C5         -3.8754   -0.2386   -1.2478 C.ar      1 ATP         0.0820
     26 C6         -4.7432    0.6719   -2.0470 C.ar      1 ATP         0.1640
     27 N6         -5.9725    0.9415   -1.6366 N.pl3     1 ATP        -0.4916
     28 N1         -4.1703    1.1517   -3.1536 N.pl3     1 ATP        -0.4390
     29 C2         -2.8174    0.7994   -3.5215 C.ar      1 ATP         0.5691
     30 N3         -2.0475    0.0097   -2.8393 N.ar      1 ATP        -0.4283
     31 C4         -2.6278   -0.4836   -1.7071 C.ar      1 ATP         0.2226
     32 H5'1       -1.7618   -3.4448    2.4164 H         1 ATP        -0.0393
     33 H5'2       -0.1874   -3.8744    3.1341 H         1 ATP        -0.0393
     34 H4'         0.8871   -3.6466    0.8809 H         1 ATP        -0.0393
     35 H3'        -0.7370   -1.2334    1.9869 H         1 ATP        -0.0393
     36 HO3'        1.3407   -0.4871    2.3218 H         1 ATP         0.2010
     37 H2'        -0.0343   -0.0280    0.0196 H         1 ATP        -0.0393
     38 HO2'        2.1443   -0.7955    0.0378 H         1 ATP         0.2010
     39 H1'        -0.5175   -2.1046   -1.7826 H         1 ATP        -0.0393
     40 H8         -3.2310   -2.1319    1.1889 H         1 ATP         0.0000
     41 HN61       -6.3231    0.5316   -0.7829 H         1 ATP         0.2048
     42 HN62       -6.5628    1.5584   -2.1760 H         1 ATP         0.2048
     43 H2         -2.4822    1.2710   -4.4579 H         1 ATP        -0.1292
     44 H44        -4.7200    1.7780   -3.7346 H         1 ATP         0.2048
@<TRIPOS>BOND
     1    1    2 2
     2    1    3 1
     3    1    4 1
     4    1    8 1
     5    5    6 2
     6    5    7 1
     7    5    8 1
     8    5   12 1
     9    9   10 2
    10    9   11 1
    11    9   12 1
    12    9   13 1
    13   13   14 1
    14   14   15 1
    15   14   32 1
    16   14   33 1
    17   15   16 1
    18   15   17 1
    19   15   34 1
    20   16   21 1
    21   17   18 1
    22   17   19 1
    23   17   35 1
    24   18   36 1
    25   19   20 1
    26   19   21 1
    27   19   37 1
    28   20   38 1
    29   21   22 1
    30   21   39 1
    31   22   23 ar
    32   22   31 ar
    33   23   24 ar
    34   23   40 1
    35   24   25 ar
    36   25   26 ar
    37   25   31 ar
    38   26   27 1
    39   26   28 ar
    40   27   41 1
    41   27   42 1
    42   28   29 ar
    43   28   44 1
    44   29   30 ar
    45   29   43 1
    46   30   31 ar
@<TRIPOS>SUBSTRUCTURE
     1 ATP         1 GROUP 0 A     ****
@<TRIPOS>MOLECULE
[[[5-(6-amino-1,8-dihydropurine-6,8-diylium-7-id-9-yl)-3,4-dihydroxy-tetrahydrofuran-2-yl]methoxy-oxido-phosphoryl]oxy-oxido-phosphoryl] phosphate
   44    46     1     0     0
SMALL
USER_CHARGES

@<TRIPOS>ATOM
      1 PG          6.5030    4.4167   -2.5158 P.3       1 ATP        -1.1921
      2 O1G         6.8045    2.9958   -2.0513 O.co2     1 ATP         0.3195
      3 O2G         7.1237    4.7844   -3.8593 O.co2     1 ATP         0.3195
      4 O3G         6.6757    5.4787   -1.4349 O.co2     1 ATP         0.3195
      5 PB          3.6325    4.0986   -1.7995 P.3       1 ATP        -1.1062
      6 O1B         4.0834    4.3414   -0.3763 O.co2     1 ATP         0.3195
      7 O2B         2.3859    4.7554   -2.3489 O.co2     1 ATP         0.3195
      8 O3B         4.8797    4.4119   -2.8071 O.3       1 ATP         0.4672
      9 PA          3.2351    1.6560   -3.4214 P.3       1 ATP        -1.1062
     10 O1A         4.4163    1.8426   -4.3485 O.co2     1 ATP         0.3195
     11 O2A         1.8290    1.9639   -3.8886 O.co2     1 ATP         0.3195
     12 O3A         3.5255    2.4882   -2.0456 O.3       1 ATP         0.4672
     13 O5'         3.2903    0.1346   -2.8241 O.3       1 ATP         0.1618
     14 C5'         2.2816   -0.2918   -1.9206 C.3       1 ATP         0.1504
     15 C4'         2.7248    0.0226   -0.4980 C.3       1 ATP         0.1111
     16 O4'         2.4697    1.4219   -0.2462 O.3       1 ATP        -0.1436
     17 C3'         1.9404   -0.7419    0.5596 C.3       1 ATP         0.1111
     18 O3'         2.7418   -0.8086    1.7389 O.3       1 ATP        -0.2728
     19 C2'         0.7477    0.1630    0.7858 C.3       1 ATP         0.1111
     20 O2'         0.1373   -0.0577    2.0407 O.3       1 ATP        -0.2728
     21 C1'         1.3733    1.5427    0.6747 C.3       1 ATP         0.2693
     22 N9          0.4520    2.5240    0.1767 N.pl3     1 ATP        -0.3222
     23 C8         -0.3054    2.4845   -1.1576 C.ar      1 ATP         0.1640
     24 N7         -1.0755    3.5806   -1.2691 N.2       1 ATP        -0.1640
     25 C5         -0.8043    4.2306   -0.0942 C.ar      1 ATP         0.0820
     26 C6         -1.4324    5.5335    0.2646 C.ar      1 ATP         0.1640
     27 N6         -2.2885    6.1054   -0.5675 N.pl3     1 ATP        -0.4916
     28 N1         -1.0537    6.0229    1.4478 N.pl3     1 ATP        -0.4390
     29 C2         -0.1096    5.3242    2.2908 C.ar      1 ATP         0.5691
     30 N3          0.4468    4.1904    1.9960 N.ar      1 ATP        -0.4283
     31 C4          0.0631    3.6855    0.7877 C.ar      1 ATP         0.2226
     32 H5'1        1.3514    0.2330   -2.1577 H         1 ATP        -0.0393
     33 H5'2        2.1280   -1.3678   -2.0460 H         1 ATP        -0.0393
     34 H4'         3.8040   -0.1399   -0.4044 H         1 ATP        -0.0393
     35 H3'         1.6768   -1.7637    0.2732 H         1 ATP        -0.0393
     36 HO3'        3.5553   -1.2733    1.4913 H         1 ATP         0.2010
     37 H2'         0.0002   -0.0084   -0.0014 H         1 ATP        -0.0393
     38 HO2'       -0.6132    0.5577    2.1063 H         1 ATP         0.2010
     39 H1'         1.7718    1.9211    1.6015 H         1 ATP        -0.0393
     40 H8         -0.2991    1.7413   -1.9611 H         1 ATP         0.0000
     41 HN61       -2.5167    5.6603   -1.4447 H         1 ATP         0.2048
     42 HN62       -2.7159    6.9882   -0.3270 H         1 ATP         0.2048
     43 H2          0.1059    5.8491    3.2340 H         1 ATP        -0.1292
     44 H44        -1.4532    6.9099    1.7401 H         1 ATP         0.2048
@<TRIPOS>BOND
     1    1    2 2
     2    1    3 1
     3    1    4 1
     4    1    8 1
     5    5    6 2
     6    5    7 1
     7    5    8 1
     8    5   12 1
     9    9   10 2
    10    9   11 1
    11    9   12 1
    12    9   13 1
    13   13   14 1
    14   14   15 1
    15   14   32 1
    16   14   33 1
    17   15   16 1
    18   15   17 1
    19   15   34 1
    20   16   21 1
    21   17   18 1
    22   17   19 1
    23   17   35 1
    24   18   36 1
    25   19   20 1
    26   19   21 1
    27   19   37 1
    28   20   38 1
    29   21   22 1
    30   21   39 1
    31   22   23 ar
    32   22   31 ar
    33   23   24 ar
    34   23   40 1
    35   24   25 ar
    36   25   26 ar
    37   25   31 ar
    38   26   27 1
    39   26   28 ar
    40   27   41 1
    41   27   42 1
    42   28   29 ar
    43   28   44 1
    44   29   30 ar
    45   29   43 1
    46   30   31 ar
@<TRIPOS>SUBSTRUCTURE
     1 ATP         1 GROUP 0 A     ****
@<TRIPOS>MOLECULE
[[[5-(6-amino-1,8-dihydropurine-6,8-diylium-7-id-9-yl)-3,4-dihydroxy-tetrahydrofuran-2-yl]methoxy-oxido-phosphoryl]oxy-oxido-phosphoryl] phosphate
   44    46     1     0     0
SMALL
USER_CHARGES

@<TRIPOS>ATOM
      1 PG          5.5011   -4.2192   -6.6031 P.3       1 ATP        -1.1921
      2 O1G         4.4092   -5.1704   -7.0817 O.co2     1 ATP         0.3195
      3 O2G         5.9742   -3.2235   -7.6569 O.co2     1 ATP         0.3195
      4 O3G         6.6286   -4.8976   -5.8320 O.co2     1 ATP         0.3195
      5 PB          4.0226   -3.7111   -4.0714 P.3       1 ATP        -1.1062
      6 O1B         2.7813   -4.5114   -4.3972 O.co2     1 ATP         0.3195
      7 O2B         5.0681   -4.2416   -3.1159 O.co2     1 ATP         0.3195
      8 O3B         4.7549   -3.2841   -5.4680 O.3       1 ATP         0.4672
      9 PA          4.4792   -0.9077   -3.2423 P.3       1 ATP        -1.1062
     10 O1A         5.1016   -0.4210   -4.5328 O.co2     1 ATP         0.3195
     11 O2A         5.3389   -1.2041   -2.0327 O.co2     1 ATP         0.3195
     12 O3A         3.5692   -2.2233   -3.5751 O.3       1 ATP         0.4672
     13 O5'         3.2903    0.1346   -2.8241 O.3       1 ATP         0.1618
     14 C5'         2.2816   -0.2918   -1.9206 C.3       1 ATP         0.1504
     15 C4'         2.7248    0.0226   -0.4980 C.3       1 ATP         0.1111
     16 O4'         2.4697    1.4219   -0.2462 O.3       1 ATP        -0.1436
     17 C3'         1.9404   -0.7419    0.5596 C.3       1 ATP         0.1111
     18 O3'         2.7418   -0.8086    1.7389 O.3       1 ATP        -0.2728
     19 C2'         0.7477    0.1630    0.7858 C.3       1 ATP         0.1111
     20 O2'         0.1373   -0.0577    2.0407 O.3       1 ATP        -0.2728
     21 C1'         1.3733    1.5427    0.6747 C.3       1 ATP         0.2693
     22 N9          0.4520    2.5240    0.1767 N.pl3     1 ATP        -0.3222
     23 C8         -1.0660    2.5608    0.3999 C.ar      1 ATP         0.1640
     24 N7         -1.5852    3.6333   -0.2221 N.2       1 ATP        -0.1640
     25 C5         -0.4682    4.1996   -0.7771 C.ar      1 ATP         0.0820
     26 C6         -0.5216    5.4476   -1.5899 C.ar      1 ATP         0.1640
     27 N6         -1.6813    6.0510   -1.7982 N.pl3     1 ATP        -0.4916
     28 N1          0.6621    5.8575   -2.0523 N.pl3     1 ATP        -0.4390
     29 C2          1.8795    5.1301   -1.7717 C.ar      1 ATP         0.5691
     30 N3          1.9458    4.0434   -1.0670 N.ar      1 ATP        -0.4283
     31 C4          0.7388    3.6199   -0.5917 C.ar      1 ATP         0.2226
     32 H5'1        1.3514    0.2330   -2.1577 H         1 ATP        -0.0393
     33 H5'2        2.1280   -1.3678   -2.0460 H         1 ATP        -0.0393
     34 H4'         3.8040   -0.1399   -0.4044 H         1 ATP        -0.0393
     35 H3'         1.6768   -1.7637    0.2732 H         1 ATP        -0.0393
     36 HO3'        2.2231   -1.2979    2.3952 H         1 ATP         0.2010
     37 H2'         0.0002   -0.0084   -0.0014 H         1 ATP        -0.0393
     38 HO2'       -0.1554   -0.9852    2.0577 H         1 ATP         0.2010
     39 H1'         1.7718    1.9211    1.6015 H         1 ATP        -0.0393
     40 H8         -1.7235    1.8833    0.9537 H         1 ATP         0.0000
     41 HN61       -2.5296    5.6672   -1.4072 H         1 ATP         0.2048
     42 HN62       -1.7205    6.8969   -2.3483 H         1 ATP         0.2048
     43 H2          2.7750    5.5878   -2.2190 H         1 ATP        -0.1292
     44 H44         0.6808    6.7046   -2.6128 H         1 ATP         0.2048
@<TRIPOS>BOND
     1    1    2 2
     2    1    3 1
     3    1    4 1
     4    1    8 1
     5    5    6 2
     6    5    7 1
     7    5    8 1
     8    5   12 1
     9    9   10 2
    10    9   11 1
    11    9   12 1
    12    9   13 1
    13   13   14 1
    14   14   15 1
    15   14   32 1
    16   14   33 1
    17   15   16 1
    18   15   17 1
    19   15   34 1
    20   16   21 1
    21   17   18 1
    22   17   19 1
    23   17   35 1
    24   18   36 1
    25   19   20 1
    26   19   21 1
    27   19   37 1
    28   20   38 1
    29   21   22 1
    30   21   39 1
    31   22   23 ar
    32   22   31 ar
    33   23   24 ar
    34   23   40 1
    35   24   25 ar
    36   25   26 ar
    37   25   31 ar
    38   26   27 1
    39   26   28 ar
    40   27   41 1
    41   27   42 1
    42   28   29 ar
    43   28   44 1
    44   29   30 ar
    45   29   43 1
    46   30   31 ar
@<TRIPOS>SUBSTRUCTURE
     1 ATP         1 GROUP 0 A     ****
@<TRIPOS>MOLECULE
[[[5-(6-amino-1,8-dihydropurine-6,8-diylium-7-id-9-yl)-3,4-dihydroxy-tetrahydrofuran-2-yl]methoxy-oxido-phosphoryl]oxy-oxido-phosphoryl] phosphate
   44    46     1     0     0
SMALL
USER_CHARGES

@<TRIPOS>ATOM
      1 PG          9.2685   -1.4082   -2.8981 P.3       1 ATP        -1.1921
      2 O1G         9.3147   -2.9032   -3.1957 O.co2     1 ATP         0.3195
      3 O2G         9.5991   -0.5187   -4.0920 O.co2     1 ATP         0.3195
      4 O3G         9.9685   -1.0053   -1.6044 O.co2     1 ATP         0.3195
      5 PB          6.6881   -1.7222   -1.4500 P.3       1 ATP        -1.1062
      6 O1B         6.4744   -3.1925   -1.7329 O.co2     1 ATP         0.3195
      7 O2B         7.1575   -1.2458   -0.0935 O.co2     1 ATP         0.3195
      8 O3B         7.6761   -1.1044   -2.5952 O.3       1 ATP         0.4672
      9 PA          4.4792   -0.9077   -3.2423 P.3       1 ATP        -1.1062
     10 O1A         3.8631   -2.2772   -3.4280 O.co2     1 ATP         0.3195
     11 O2A         5.3328   -0.2899   -4.3285 O.co2     1 ATP         0.3195
     12 O3A         5.3275   -0.9113   -1.8458 O.3       1 ATP         0.4672
     13 O5'         3.2903    0.1346   -2.8241 O.3       1 ATP         0.1618
     14 C5'         2.2816   -0.2918   -1.9206 C.3       1 ATP         0.1504
     15 C4'         2.7248    0.0226   -0.4980 C.3       1 ATP         0.1111
     16 O4'         2.4697    1.4219   -0.2462 O.3       1 ATP        -0.1436
     17 C3'         1.9404   -0.7419    0.5596 C.3       1 ATP         0.1111
     18 O3'         2.7418   -0.8086    1.7389 O.3       1 ATP        -0.2728
     19 C2'         0.7477    0.1630    0.7858 C.3       1 ATP         0.1111
     20 O2'         0.1373   -0.0577    2.0407 O.3       1 ATP        -0.2728
     21 C1'         1.3733    1.5427    0.6747 C.3       1 ATP         0.2693
     22 N9          0.4520    2.5240    0.1767 N.pl3     1 ATP        -0.3222
     23 C8         -1.0660    2.5608    0.3999 C.ar      1 ATP         0.1640
     24 N7         -1.5852    3.6333   -0.2221 N.2       1 ATP        -0.1640
     25 C5         -0.4682    4.1996   -0.7771 C.ar      1 ATP         0.0820
     26 C6         -0.5216    5.4476   -1.5899 C.ar      1 ATP         0.1640
     27 N6         -1.6813    6.0510   -1.7982 N.pl3     1 ATP        -0.4916
     28 N1          0.6621    5.8575   -2.0523 N.pl3     1 ATP        -0.4390
     29 C2          1.8795    5.1301   -1.7717 C.ar      1 ATP         0.5691
     30 N3          1.9458    4.0434   -1.0670 N.ar      1 ATP        -0.4283
     31 C4          0.7388    3.6199   -0.5917 C.ar      1 ATP         0.2226
     32 H5'1        1.3514    0.2330   -2.1577 H         1 ATP        -0.0393
     33 H5'2        2.1280   -1.3678   -2.0460 H         1 ATP        -0.0393
     34 H4'         3.8040   -0.1399   -0.4044 H         1 ATP        -0.0393
     35 H3'         1.6768   -1.7637    0.2732 H         1 ATP        -0.0393
     36 HO3'        2.2231   -1.2979    2.3952 H         1 ATP         0.2010
     37 H2'         0.0002   -0.0084   -0.0014 H         1 ATP        -0.0393
     38 HO2'       -0.1554   -0.9852    2.0577 H         1 ATP         0.2010
     39 H1'         1.7718    1.9211    1.6015 H         1 ATP        -0.0393
     40 H8         -1.7235    1.8833    0.9537 H         1 ATP         0.0000
     41 HN61       -2.5296    5.6672   -1.4072 H         1 ATP         0.2048
     42 HN62       -1.7205    6.8969   -2.3483 H         1 ATP         0.2048
     43 H2          2.7750    5.5878   -2.2190 H         1 ATP        -0.1292
     44 H44         0.6808    6.7046   -2.6128 H         1 ATP         0.2048
@<TRIPOS>BOND
     1    1    2 2
     2    1    3 1
     3    1    4 1
     4    1    8 1
     5    5    6 2
     6    5    7 1
     7    5    8 1
     8    5   12 1
     9    9   10 2
    10    9   11 1
    11    9   12 1
    12    9   13 1
    13   13   14 1
    14   14   15 1
    15   14   32 1
    16   14   33 1
    17   15   16 1
    18   15   17 1
    19   15   34 1
    20   16   21 1
    21   17   18 1
    22   17   19 1
    23   17   35 1
    24   18   36 1
    25   19   20 1
    26   19   21 1
    27   19   37 1
    28   20   38 1
    29   21   22 1
    30   21   39 1
    31   22   23 ar
    32   22   31 ar
    33   23   24 ar
    34   23   40 1
    35   24   25 ar
    36   25   26 ar
    37   25   31 ar
    38   26   27 1
    39   26   28 ar
    40   27   41 1
    41   27   42 1
    42   28   29 ar
    43   28   44 1
    44   29   30 ar
    45   29   43 1
    46   30   31 ar
@<TRIPOS>SUBSTRUCTURE
     1 ATP         1 GROUP 0 A     ****
@<TRIPOS>MOLECULE
[[[5-(6-amino-1,8-dihydropurine-6,8-diylium-7-id-9-yl)-3,4-dihydroxy-tetrahydrofuran-2-yl]methoxy-oxido-phosphoryl]oxy-oxido-phosphoryl] phosphate
   44    46     1     0     0
SMALL
USER_CHARGES

@<TRIPOS>ATOM
      1 PG          6.7854    3.8069    0.5039 P.3       1 ATP        -1.1921
      2 O1G         7.9271    4.2482   -0.4057 O.co2     1 ATP         0.3195
      3 O2G         6.1681    4.9310    1.3291 O.co2     1 ATP         0.3195
      4 O3G         7.0707    2.5341    1.2943 O.co2     1 ATP         0.3195
      5 PB          5.5753    2.2142   -1.6991 P.3       1 ATP        -1.1062
      6 O1B         6.5363    2.6200   -2.7943 O.co2     1 ATP         0.3195
      7 O2B         5.6666    0.8556   -1.0409 O.co2     1 ATP         0.3195
      8 O3B         5.5861    3.3630   -0.5375 O.3       1 ATP         0.4672
      9 PA          3.2351    1.6560   -3.4214 P.3       1 ATP        -1.1062
     10 O1A         4.0724    1.6996   -4.6810 O.co2     1 ATP         0.3195
     11 O2A         1.8026    2.1439   -3.4277 O.co2     1 ATP         0.3195
     12 O3A         4.0492    2.4323   -2.2364 O.3       1 ATP         0.4672
     13 O5'         3.2903    0.1346   -2.8241 O.3       1 ATP         0.1618
     14 C5'         2.2816   -0.2918   -1.9206 C.3       1 ATP         0.1504
     15 C4'         2.7248    0.0226   -0.4980 C.3       1 ATP         0.1111
     16 O4'         2.4697    1.4219   -0.2462 O.3       1 ATP        -0.1436
     17 C3'         1.9404   -0.7419    0.5596 C.3       1 ATP         0.1111
     18 O3'         2.7418   -0.8086    1.7389 O.3       1 ATP        -0.2728
     19 C2'         0.7477    0.1630    0.7858 C.3       1 ATP         0.1111
     20 O2'         0.1373   -0.0577    2.0407 O.3       1 ATP        -0.2728
     21 C1'         1.3733    1.5427    0.6747 C.3       1 ATP         0.2693
     22 N9          0.4520    2.5240    0.1767 N.pl3     1 ATP        -0.3222
     23 C8         -1.0247    2.3053   -0.1800 C.ar      1 ATP         0.1640
     24 N7         -1.5580    3.4612   -0.6116 N.2       1 ATP        -0.1640
     25 C5         -0.4873    4.3110   -0.5222 C.ar      1 ATP         0.0820
     26 C6         -0.5728    5.7505   -0.8981 C.ar      1 ATP         0.1640
     27 N6         -1.7163    6.2514   -1.3385 N.pl3     1 ATP        -0.4916
     28 N1          0.5667    6.4301   -0.7475 N.pl3     1 ATP        -0.4390
     29 C2          1.7697    5.7952   -0.2579 C.ar      1 ATP         0.5691
     30 N3          1.8633    4.5450    0.0742 N.ar      1 ATP        -0.4283
     31 C4          0.7014    3.8457   -0.0776 C.ar      1 ATP         0.2226
     32 H5'1        1.3514    0.2330   -2.1577 H         1 ATP        -0.0393
     33 H5'2        2.1280   -1.3678   -2.0460 H         1 ATP        -0.0393
     34 H4'         3.8040   -0.1399   -0.4044 H         1 ATP        -0.0393
     35 H3'         1.6768   -1.7637    0.2732 H         1 ATP        -0.0393
     36 HO3'        2.2231   -1.2979    2.3952 H         1 ATP         0.2010
     37 H2'         0.0002   -0.0084   -0.0014 H         1 ATP        -0.0393
     38 HO2'       -0.1554   -0.9852    2.0577 H         1 ATP         0.2010
     39 H1'         1.7718    1.9211    1.6015 H         1 ATP        -0.0393
     40 H8         -1.6458    1.4054   -0.1318 H         1 ATP         0.0000
     41 HN61       -2.5307    5.6598   -1.4199 H         1 ATP         0.2048
     42 HN62       -1.7773    7.2266   -1.5938 H         1 ATP         0.2048
     43 H2          2.6279    6.4808   -0.1872 H         1 ATP        -0.1292
     44 H44         0.5621    7.4166   -0.9900 H         1 ATP         0.2048
@<TRIPOS>BOND
     1    1    2 2
     2    1    3 1
     3    1    4 1
     4    1    8 1
     5    5    6 2
     6    5    7 1
     7    5    8 1
     8    5   12 1
     9    9   10 2
    10    9   11 1
    11    9   12 1
    12    9   13 1
    13   13   14 1
    14   14   15 1
    15   14   32 1
    16   14   33 1
    17   15   16 1
    18   15   17 1
    19   15   34 1
    20   16   21 1
    21   17   18 1
    22   17   19 1
    23   17   35 1
    24   18   36 1
    25   19   20 1
    26   19   21 1
    27   19   37 1
    28   20   38 1
    29   21   22 1
    30   21   39 1
    31   22   23 ar
    32   22   31 ar
    33   23   24 ar
    34   23   40 1
    35   24   25 ar
    36   25   26 ar
    37   25   31 ar
    38   26   27 1
    39   26   28 ar
    40   27   41 1
    41   27   42 1
    42   28   29 ar
    43   28   44 1
    44   29   30 ar
    45   29   43 1
    46   30   31 ar
@<TRIPOS>SUBSTRUCTURE
     1 ATP         1 GROUP 0 A     ****
@<TRIPOS>MOLECULE
[[[5-(6-amino-1,8-dihydropurine-6,8-diylium-7-id-9-yl)-3,4-dihydroxy-tetrahydrofuran-2-yl]methoxy-oxido-phosphoryl]oxy-oxido-phosphoryl] phosphate
   44    46     1     0     0
SMALL
USER_CHARGES

@<TRIPOS>ATOM
      1 PG          7.7404    2.1139   -0.0952 P.3       1 ATP        -1.1921
      2 O1G         8.0512    3.1491   -1.1711 O.co2     1 ATP         0.3195
      3 O2G         7.0673    2.6828    1.1493 O.co2     1 ATP         0.3195
      4 O3G         8.8869    1.1516    0.1976 O.co2     1 ATP         0.3195
      5 PB          6.6419    0.2463   -2.1347 P.3       1 ATP        -1.1062
      6 O1B         6.7521    1.1649   -3.3312 O.co2     1 ATP         0.3195
      7 O2B         7.6230   -0.8851   -1.9230 O.co2     1 ATP         0.3195
      8 O3B         6.5857    1.1544   -0.7778 O.3       1 ATP         0.4672
      9 PA          4.3707   -1.3841   -3.1032 P.3       1 ATP        -1.1062
     10 O1A         5.0455   -2.7351   -3.0086 O.co2     1 ATP         0.3195
     11 O2A         4.1993   -0.6971   -4.4406 O.co2     1 ATP         0.3195
     12 O3A         5.1269   -0.3595   -2.0794 O.3       1 ATP         0.4672
     13 O5'         2.9216   -1.4836   -2.3516 O.3       1 ATP         0.1618
     14 C5'         2.2816   -0.2918   -1.9206 C.3       1 ATP         0.1504
     15 C4'         2.7248    0.0226   -0.4980 C.3       1 ATP         0.1111
     16 O4'         2.4697    1.4219   -0.2462 O.3       1 ATP        -0.1436
     17 C3'         1.9404   -0.7419    0.5596 C.3       1 ATP         0.1111
     18 O3'         2.7418   -0.8086    1.7389 O.3       1 ATP        -0.2728
     19 C2'         0.7477    0.1630    0.7858 C.3       1 ATP         0.1111
     20 O2'         0.1373   -0.0577    2.0407 O.3       1 ATP        -0.2728
     21 C1'         1.3733    1.5427    0.6747 C.3       1 ATP         0.2693
     22 N9          0.4520    2.5240    0.1767 N.pl3     1 ATP        -0.3222
     23 C8         -0.3054    2.4845   -1.1576 C.ar      1 ATP         0.1640
     24 N7         -1.0755    3.5806   -1.2691 N.2       1 ATP        -0.1640
     25 C5         -0.8043    4.2306   -0.0942 C.ar      1 ATP         0.0820
     26 C6         -1.4324    5.5335    0.2646 C.ar      1 ATP         0.1640
     27 N6         -2.2885    6.1054   -0.5675 N.pl3     1 ATP        -0.4916
     28 N1         -1.0537    6.0229    1.4478 N.pl3     1 ATP        -0.4390
     29 C2         -0.1096    5.3242    2.2908 C.ar      1 ATP         0.5691
     30 N3          0.4468    4.1904    1.9960 N.ar      1 ATP        -0.4283
     31 C4          0.0631    3.6855    0.7877 C.ar      1 ATP         0.2226
     32 H5'1        2.5589    0.5217   -2.5976 H         1 ATP        -0.0393
     33 H5'2        1.1982   -0.4388   -1.9617 H         1 ATP        -0.0393
     34 H4'         3.8040   -0.1399   -0.4044 H         1 ATP        -0.0393
     35 H3'         1.6768   -1.7637    0.2732 H         1 ATP        -0.0393
     36 HO3'        3.5553   -1.2733    1.4913 H         1 ATP         0.2010
     37 H2'         0.0002   -0.0084   -0.0014 H         1 ATP        -0.0393
     38 HO2'       -0.6132    0.5577    2.1063 H         1 ATP         0.2010
     39 H1'         1.7718    1.9211    1.6015 H         1 ATP        -0.0393
     40 H8         -0.2991    1.7413   -1.9611 H         1 ATP         0.0000
     41 HN61       -2.5167    5.6603   -1.4447 H         1 ATP         0.2048
     42 HN62       -2.7159    6.9882   -0.3270 H         1 ATP         0.2048
     43 H2          0.1059    5.8491    3.2340 H         1 ATP        -0.1292
     44 H44        -1.4532    6.9099    1.7401 H         1 ATP         0.2048
@<TRIPOS>BOND
     1    1    2 2
     2    1    3 1
     3    1    4 1
     4    1    8 1
     5    5    6 2
     6    5    7 1
     7    5    8 1
     8    5   12 1
     9    9   10 2
    10    9   11 1
    11    9   12 1
    12    9   13 1
    13   13   14 1
    14   14   15 1
    15   14   32 1
    16   14   33 1
    17   15   16 1
    18   15   17 1
    19   15   34 1
    20   16   21 1
    21   17   18 1
    22   17   19 1
    23   17   35 1
    24   18   36 1
    25   19   20 1
    26   19   21 1
    27   19   37 1
    28   20   38 1
    29   21   22 1
    30   21   39 1
    31   22   23 ar
    32   22   31 ar
    33   23   24 ar
    34   23   40 1
    35   24   25 ar
    36   25   26 ar
    37   25   31 ar
    38   26   27 1
    39   26   28 ar
    40   27   41 1
    41   27   42 1
    42   28   29 ar
    43   28   44 1
    44   29   30 ar
    45   29   43 1
    46   30   31 ar
@<TRIPOS>SUBSTRUCTURE
     1 ATP         1 GROUP 0 A     ****
@<TRIPOS>MOLECULE
[[[5-(6-amino-1,8-dihydropurine-6,8-diylium-7-id-9-yl)-3,4-dihydroxy-tetrahydrofuran-2-yl]methoxy-oxido-phosphoryl]oxy-oxido-phosphoryl] phosphate
   44    46     1     0     0
SMALL
USER_CHARGES

@<TRIPOS>ATOM
      1 PG          3.6545    4.7424   -5.5423 P.3       1 ATP        -1.1921
      2 O1G         4.2870    4.4076   -4.1956 O.co2     1 ATP         0.3195
      3 O2G         4.6113    4.6529   -6.7263 O.co2     1 ATP         0.3195
      4 O3G         2.7869    5.9967   -5.5320 O.co2     1 ATP         0.3195
      5 PB          1.2878    3.0530   -4.9106 P.3       1 ATP        -1.1062
      6 O1B         0.8273    4.2217   -4.0681 O.co2     1 ATP         0.3195
      7 O2B         0.3251    2.3055   -5.8059 O.co2     1 ATP         0.3195
      8 O3B         2.5769    3.5206   -5.7987 O.3       1 ATP         0.4672
      9 PA          2.8629    0.6171   -4.3271 P.3       1 ATP        -1.1062
     10 O1A         4.1195    1.0141   -5.0709 O.co2     1 ATP         0.3195
     11 O2A         1.8953   -0.3828   -4.9221 O.co2     1 ATP         0.3195
     12 O3A         2.0427    1.9769   -3.9423 O.3       1 ATP         0.4672
     13 O5'         3.2903    0.1346   -2.8241 O.3       1 ATP         0.1618
     14 C5'         2.2816   -0.2918   -1.9206 C.3       1 ATP         0.1504
     15 C4'         2.7248    0.0226   -0.4980 C.3       1 ATP         0.1111
     16 O4'         2.4697    1.4219   -0.2462 O.3       1 ATP        -0.1436
     17 C3'         1.9404   -0.7419    0.5596 C.3       1 ATP         0.1111
     18 O3'         2.7418   -0.8086    1.7389 O.3       1 ATP        -0.2728
     19 C2'         0.7477    0.1630    0.7858 C.3       1 ATP         0.1111
     20 O2'         0.1373   -0.0577    2.0407 O.3       1 ATP        -0.2728
     21 C1'         1.3733    1.5427    0.6747 C.3       1 ATP         0.2693
     22 N9          0.4520    2.5240    0.1767 N.pl3     1 ATP        -0.3222
     23 C8         -1.0660    2.5608    0.3999 C.ar      1 ATP         0.1640
     24 N7         -1.5852    3.6333   -0.2221 N.2       1 ATP        -0.1640
     25 C5         -0.4682    4.1996   -0.7771 C.ar      1 ATP         0.0820
     26 C6         -0.5216    5.4476   -1.5899 C.ar      1 ATP         0.1640
     27 N6         -1.6813    6.0510   -1.7982 N.pl3     1 ATP        -0.4916
     28 N1          0.6621    5.8575   -2.0523 N.pl3     1 ATP        -0.4390
     29 C2          1.8795    5.1301   -1.7717 C.ar      1 ATP         0.5691
     30 N3          1.9458    4.0434   -1.0670 N.ar      1 ATP        -0.4283
     31 C4          0.7388    3.6199   -0.5917 C.ar      1 ATP         0.2226
     32 H5'1        1.3514    0.2330   -2.1577 H         1 ATP        -0.0393
     33 H5'2        2.1280   -1.3678   -2.0460 H         1 ATP        -0.0393
     34 H4'         3.8040   -0.1399   -0.4044 H         1 ATP        -0.0393
     35 H3'         1.6768   -1.7637    0.2732 H         1 ATP        -0.0393
     36 HO3'        2.2231   -1.2979    2.3952 H         1 ATP         0.2010
     37 H2'         0.0002   -0.0084   -0.0014 H         1 ATP        -0.0393
     38 HO2'       -0.1554   -0.9852    2.0577 H         1 ATP         0.2010
     39 H1'         1.7718    1.9211    1.6015 H         1 ATP        -0.0393
     40 H8         -1.7235    1.8833    0.9537 H         1 ATP         0.0000
     41 HN61       -2.5296    5.6672   -1.4072 H         1 ATP         0.2048
     42 HN62       -1.7205    6.8969   -2.3483 H         1 ATP         0.2048
     43 H2          2.7750    5.5878   -2.2190 H         1 ATP        -0.1292
     44 H44         0.6808    6.7046   -2.6128 H         1 ATP         0.2048
@<TRIPOS>BOND
     1    1    2 2
     2    1    3 1
     3    1    4 1
     4    1    8 1
     5    5    6 2
     6    5    7 1
     7    5    8 1
     8    5   12 1
     9    9   10 2
    10    9   11 1
    11    9   12 1
    12    9   13 1
    13   13   14 1
    14   14   15 1
    15   14   32 1
    16   14   33 1
    17   15   16 1
    18   15   17 1
    19   15   34 1
    20   16   21 1
    21   17   18 1
    22   17   19 1
    23   17   35 1
    24   18   36 1
    25   19   20 1
    26   19   21 1
    27   19   37 1
    28   20   38 1
    29   21   22 1
    30   21   39 1
    31   22   23 ar
    32   22   31 ar
    33   23   24 ar
    34   23   40 1
    35   24   25 ar
    36   25   26 ar
    37   25   31 ar
    38   26   27 1
    39   26   28 ar
    40   27   41 1
    41   27   42 1
    42   28   29 ar
    43   28   44 1
    44   29   30 ar
    45   29   43 1
    46   30   31 ar
@<TRIPOS>SUBSTRUCTURE
     1 ATP         1 GROUP 0 A     ****
@<TRIPOS>MOLECULE
[[[5-(6-amino-1,8-dihydropurine-6,8-diylium-7-id-9-yl)-3,4-dihydroxy-tetrahydrofuran-2-yl]methoxy-oxido-phosphoryl]oxy-oxido-phosphoryl] phosphate
   44    46     1     0     0
SMALL
USER_CHARGES

@<TRIPOS>ATOM
      1 PG          6.1941   -5.2583   -2.0433 P.3       1 ATP        -1.1921
      2 O1G         6.2672   -5.6618   -0.5744 O.co2     1 ATP         0.3195
      3 O2G         5.1818   -6.0506   -2.8637 O.co2     1 ATP         0.3195
      4 O3G         7.5530   -5.0934   -2.7157 O.co2     1 ATP         0.3195
      5 PB          6.1661   -2.3759   -1.3049 P.3       1 ATP        -1.1062
      6 O1B         6.1149   -2.5517    0.1965 O.co2     1 ATP         0.3195
      7 O2B         7.4463   -1.9751   -2.0034 O.co2     1 ATP         0.3195
      8 O3B         5.5816   -3.7273   -2.0128 O.3       1 ATP         0.4672
      9 PA          4.4792   -0.9077   -3.2423 P.3       1 ATP        -1.1062
     10 O1A         3.8416   -2.1127   -3.8989 O.co2     1 ATP         0.3195
     11 O2A         5.5942   -0.1511   -3.9311 O.co2     1 ATP         0.3195
     12 O3A         4.9832   -1.3425   -1.7501 O.3       1 ATP         0.4672
     13 O5'         3.2903    0.1346   -2.8241 O.3       1 ATP         0.1618
     14 C5'         2.2816   -0.2918   -1.9206 C.3       1 ATP         0.1504
     15 C4'         2.7248    0.0226   -0.4980 C.3       1 ATP         0.1111
     16 O4'         2.4697    1.4219   -0.2462 O.3       1 ATP        -0.1436
     17 C3'         1.9404   -0.7419    0.5596 C.3       1 ATP         0.1111
     18 O3'         2.7418   -0.8086    1.7389 O.3       1 ATP        -0.2728
     19 C2'         0.7477    0.1630    0.7858 C.3       1 ATP         0.1111
     20 O2'         0.1373   -0.0577    2.0407 O.3       1 ATP        -0.2728
     21 C1'         1.3733    1.5427    0.6747 C.3       1 ATP         0.2693
     22 N9          0.4520    2.5240    0.1767 N.pl3     1 ATP        -0.3222
     23 C8         -1.0660    2.5608    0.3999 C.ar      1 ATP         0.1640
     24 N7         -1.5852    3.6333   -0.2221 N.2       1 ATP        -0.1640
     25 C5         -0.4682    4.1996   -0.7771 C.ar      1 ATP         0.0820
     26 C6         -0.5216    5.4476   -1.5899 C.ar      1 ATP         0.1640
     27 N6         -1.6813    6.0510   -1.7982 N.pl3     1 ATP        -0.4916
     28 N1          0.6621    5.8575   -2.0523 N.pl3     1 ATP        -0.4390
     29 C2          1.8795    5.1301   -1.7717 C.ar      1 ATP         0.5691
     30 N3          1.9458    4.0434   -1.0670 N.ar      1 ATP        -0.4283
     31 C4          0.7388    3.6199   -0.5917 C.ar      1 ATP         0.2226
     32 H5'1        1.3514    0.2330   -2.1577 H         1 ATP        -0.0393
     33 H5'2        2.1280   -1.3678   -2.0460 H         1 ATP        -0.0393
     34 H4'         3.8040   -0.1399   -0.4044 H         1 ATP        -0.0393
     35 H3'         1.6768   -1.7637    0.2732 H         1 ATP        -0.0393
     36 HO3'        2.2231   -1.2979    2.3952 H         1 ATP         0.2010
     37 H2'         0.0002   -0.0084   -0.0014 H         1 ATP        -0.0393
     38 HO2'       -0.1554   -0.9852    2.0577 H         1 ATP         0.2010
     39 H1'         1.7718    1.9211    1.6015 H         1 ATP        -0.0393
     40 H8         -1.7235    1.8833    0.9537 H         1 ATP         0.0000
     41 HN61       -2.5296    5.6672   -1.4072 H         1 ATP         0.2048
     42 HN62       -1.7205    6.8969   -2.3483 H         1 ATP         0.2048
     43 H2          2.7750    5.5878   -2.2190 H         1 ATP        -0.1292
     44 H44         0.6808    6.7046   -2.6128 H         1 ATP         0.2048
@<TRIPOS>BOND
     1    1    2 2
     2    1    3 1
     3    1    4 1
     4    1    8 1
     5    5    6 2
     6    5    7 1
     7    5    8 1
     8    5   12 1
     9    9   10 2
    10    9   11 1
    11    9   12 1
    12    9   13 1
    13   13   14 1
    14   14   15 1
    15   14   32 1
    16   14   33 1
    17   15   16 1
    18   15   17 1
    19   15   34 1
    20   16   21 1
    21   17   18 1
    22   17   19 1
    23   17   35 1
    24   18   36 1
    25   19   20 1
    26   19   21 1
    27   19   37 1
    28   20   38 1
    29   21   22 1
    30   21   39 1
    31   22   23 ar
    32   22   31 ar
    33   23   24 ar
    34   23   40 1
    35   24   25 ar
    36   25   26 ar
    37   25   31 ar
    38   26   27 1
    39   26   28 ar
    40   27   41 1
    41   27   42 1
    42   28   29 ar
    43   28   44 1
    44   29   30 ar
    45   29   43 1
    46   30   31 ar
@<TRIPOS>SUBSTRUCTURE
     1 ATP         1 GROUP 0 A     ****
@<TRIPOS>MOLECULE
[[[5-(6-amino-1,8-dihydropurine-6,8-diylium-7-id-9-yl)-3,4-dihydroxy-tetrahydrofuran-2-yl]methoxy-oxido-phosphoryl]oxy-oxido-phosphoryl] phosphate
   44    46     1     0     0
SMALL
USER_CHARGES

@<TRIPOS>ATOM
      1 PG          5.1793    3.3888    0.6413 P.3       1 ATP        -1.1921
      2 O1G         6.4250    4.0685    0.0826 O.co2     1 ATP         0.3195
      3 O2G         4.8813    3.7220    2.0993 O.co2     1 ATP         0.3195
      4 O3G         5.0705    1.9056    0.3033 O.co2     1 ATP         0.3195
      5 PB          3.6325    4.0986   -1.7995 P.3       1 ATP        -1.1062
      6 O1B         2.2706    4.7146   -2.0302 O.co2     1 ATP         0.3195
      7 O2B         4.8584    4.6170   -2.5176 O.co2     1 ATP         0.3195
      8 O3B         3.9340    4.0753   -0.1940 O.3       1 ATP         0.4672
      9 PA          3.2351    1.6560   -3.4214 P.3       1 ATP        -1.1062
     10 O1A         4.4163    1.8426   -4.3485 O.co2     1 ATP         0.3195
     11 O2A         1.8290    1.9639   -3.8886 O.co2     1 ATP         0.3195
     12 O3A         3.5255    2.4882   -2.0456 O.3       1 ATP         0.4672
     13 O5'         3.2903    0.1346   -2.8241 O.3       1 ATP         0.1618
     14 C5'         2.2816   -0.2918   -1.9206 C.3       1 ATP         0.1504
     15 C4'         2.7248    0.0226   -0.4980 C.3       1 ATP         0.1111
     16 O4'         2.4697    1.4219   -0.2462 O.3       1 ATP        -0.1436
     17 C3'         1.9404   -0.7419    0.5596 C.3       1 ATP         0.1111
     18 O3'         2.7418   -0.8086    1.7389 O.3       1 ATP        -0.2728
     19 C2'         0.7477    0.1630    0.7858 C.3       1 ATP         0.1111
     20 O2'         0.1373   -0.0577    2.0407 O.3       1 ATP        -0.2728
     21 C1'         1.3733    1.5427    0.6747 C.3       1 ATP         0.2693
     22 N9          0.4520    2.5240    0.1767 N.pl3     1 ATP        -0.3222
     23 C8         -0.3054    2.4845   -1.1576 C.ar      1 ATP         0.1640
     24 N7         -1.0755    3.5806   -1.2691 N.2       1 ATP        -0.1640
     25 C5         -0.8043    4.2306   -0.0942 C.ar      1 ATP         0.0820
     26 C6         -1.4324    5.5335    0.2646 C.ar      1 ATP         0.1640
     27 N6         -2.2885    6.1054   -0.5675 N.pl3     1 ATP        -0.4916
     28 N1         -1.0537    6.0229    1.4478 N.pl3     1 ATP        -0.4390
     29 C2         -0.1096    5.3242    2.2908 C.ar      1 ATP         0.5691
     30 N3          0.4468    4.1904    1.9960 N.ar      1 ATP        -0.4283
     31 C4          0.0631    3.6855    0.7877 C.ar      1 ATP         0.2226
     32 H5'1        1.3514    0.2330   -2.1577 H         1 ATP        -0.0393
     33 H5'2        2.1280   -1.3678   -2.0460 H         1 ATP        -0.0393
     34 H4'         3.8040   -0.1399   -0.4044 H         1 ATP        -0.0393
     35 H3'         1.6768   -1.7637    0.2732 H         1 ATP        -0.0393
     36 HO3'        2.9082    0.1071    2.0091 H         1 ATP         0.2010
     37 H2'         0.0002   -0.0084   -0.0014 H         1 ATP        -0.0393
     38 HO2'        0.8091    0.1203    2.7213 H         1 ATP         0.2010
     39 H1'         1.7718    1.9211    1.6015 H         1 ATP        -0.0393
     40 H8         -0.2991    1.7413   -1.9611 H         1 ATP         0.0000
     41 HN61       -2.5167    5.6603   -1.4447 H         1 ATP         0.2048
     42 HN62       -2.7159    6.9882   -0.3270 H         1 ATP         0.2048
     43 H2          0.1059    5.8491    3.2340 H         1 ATP        -0.1292
     44 H44        -1.4532    6.9099    1.7401 H         1 ATP         0.2048
@<TRIPOS>BOND
     1    1    2 2
     2    1    3 1
     3    1    4 1
     4    1    8 1
     5    5    6 2
     6    5    7 1
     7    5    8 1
     8    5   12 1
     9    9   10 2
    10    9   11 1
    11    9   12 1
    12    9   13 1
    13   13   14 1
    14   14   15 1
    15   14   32 1
    16   14   33 1
    17   15   16 1
    18   15   17 1
    19   15   34 1
    20   16   21 1
    21   17   18 1
    22   17   19 1
    23   17   35 1
    24   18   36 1
    25   19   20 1
    26   19   21 1
    27   19   37 1
    28   20   38 1
    29   21   22 1
    30   21   39 1
    31   22   23 ar
    32   22   31 ar
    33   23   24 ar
    34   23   40 1
    35   24   25 ar
    36   25   26 ar
    37   25   31 ar
    38   26   27 1
    39   26   28 ar
    40   27   41 1
    41   27   42 1
    42   28   29 ar
    43   28   44 1
    44   29   30 ar
    45   29   43 1
    46   30   31 ar
@<TRIPOS>SUBSTRUCTURE
     1 ATP         1 GROUP 0 A     ****
@<TRIPOS>MOLECULE
[[[5-(6-amino-1,8-dihydropurine-6,8-diylium-7-id-9-yl)-3,4-dihydroxy-tetrahydrofuran-2-yl]methoxy-oxido-phosphoryl]oxy-oxido-phosphoryl] phosphate
   44    46     1     0     0
SMALL
USER_CHARGES

@<TRIPOS>ATOM
      1 PG         -1.1191    0.8999   -5.3599 P.3       1 ATP        -1.1921
      2 O1G        -0.8679    1.7694   -4.1325 O.co2     1 ATP         0.3195
      3 O2G        -2.1437    1.4695   -6.3353 O.co2     1 ATP         0.3195
      4 O3G        -1.3059   -0.5817   -5.0502 O.co2     1 ATP         0.3195
      5 PB          1.8045    0.4927   -5.7355 P.3       1 ATP        -1.1062
      6 O1B         1.7467   -0.9341   -5.2371 O.co2     1 ATP         0.3195
      7 O2B         2.7875    0.9089   -6.8068 O.co2     1 ATP         0.3195
      8 O3B         0.3043    0.9518   -6.1913 O.3       1 ATP         0.4672
      9 PA          3.2351    1.6560   -3.4214 P.3       1 ATP        -1.1062
     10 O1A         2.8126    2.5864   -2.3054 O.co2     1 ATP         0.3195
     11 O2A         4.4892    1.9292   -4.2230 O.co2     1 ATP         0.3195
     12 O3A         1.9789    1.4872   -4.4525 O.3       1 ATP         0.4672
     13 O5'         3.2903    0.1346   -2.8241 O.3       1 ATP         0.1618
     14 C5'         2.2816   -0.2918   -1.9206 C.3       1 ATP         0.1504
     15 C4'         2.7248    0.0226   -0.4980 C.3       1 ATP         0.1111
     16 O4'         2.4697    1.4219   -0.2462 O.3       1 ATP        -0.1436
     17 C3'         1.9404   -0.7419    0.5596 C.3       1 ATP         0.1111
     18 O3'         2.7418   -0.8086    1.7389 O.3       1 ATP        -0.2728
     19 C2'         0.7477    0.1630    0.7858 C.3       1 ATP         0.1111
     20 O2'         0.1373   -0.0577    2.0407 O.3       1 ATP        -0.2728
     21 C1'         1.3733    1.5427    0.6747 C.3       1 ATP         0.2693
     22 N9          0.4520    2.5240    0.1767 N.pl3     1 ATP        -0.3222
     23 C8         -0.7463    2.2774   -0.7501 C.ar      1 ATP         0.1640
     24 N7         -1.3714    3.4419   -0.9948 N.2       1 ATP        -0.1640
     25 C5         -0.6104    4.3223   -0.2723 C.ar      1 ATP         0.0820
     26 C6         -0.9062    5.7820   -0.2194 C.ar      1 ATP         0.1640
     27 N6         -1.9385    6.2713   -0.8881 N.pl3     1 ATP        -0.4916
     28 N1         -0.0613    6.4906    0.5336 N.pl3     1 ATP        -0.4390
     29 C2          1.0416    5.8662    1.2291 C.ar      1 ATP         0.5691
     30 N3          1.3146    4.5989    1.1954 N.ar      1 ATP        -0.4283
     31 C4          0.4541    3.8697    0.4273 C.ar      1 ATP         0.2226
     32 H5'1        1.3514    0.2330   -2.1577 H         1 ATP        -0.0393
     33 H5'2        2.1280   -1.3678   -2.0460 H         1 ATP        -0.0393
     34 H4'         3.8040   -0.1399   -0.4044 H         1 ATP        -0.0393
     35 H3'         1.6768   -1.7637    0.2732 H         1 ATP        -0.0393
     36 HO3'        3.5553   -1.2733    1.4913 H         1 ATP         0.2010
     37 H2'         0.0002   -0.0084   -0.0014 H         1 ATP        -0.0393
     38 HO2'       -0.1554   -0.9852    2.0577 H         1 ATP         0.2010
     39 H1'         1.7718    1.9211    1.6015 H         1 ATP        -0.0393
     40 H8         -1.1244    1.3534   -1.1987 H         1 ATP         0.0000
     41 HN61       -2.5259    5.6573   -1.4336 H         1 ATP         0.2048
     42 HN62       -2.1416    7.2600   -0.8539 H         1 ATP         0.2048
     43 H2          1.6509    6.5764    1.8088 H         1 ATP        -0.1292
     44 H44        -0.2190    7.4917    0.6033 H         1 ATP         0.2048
@<TRIPOS>BOND
     1    1    2 2
     2    1    3 1
     3    1    4 1
     4    1    8 1
     5    5    6 2
     6    5    7 1
     7    5    8 1
     8    5   12 1
     9    9   10 2
    10    9   11 1
    11    9   12 1
    12    9   13 1
    13   13   14 1
    14   14   15 1
    15   14   32 1
    16   14   33 1
    17   15   16 1
    18   15   17 1
    19   15   34 1
    20   16   21 1
    21   17   18 1
    22   17   19 1
    23   17   35 1
    24   18   36 1
    25   19   20 1
    26   19   21 1
    27   19   37 1
    28   20   38 1
    29   21   22 1
    30   21   39 1
    31   22   23 ar
    32   22   31 ar
    33   23   24 ar
    34   23   40 1
    35   24   25 ar
    36   25   26 ar
    37   25   31 ar
    38   26   27 1
    39   26   28 ar
    40   27   41 1
    41   27   42 1
    42   28   29 ar
    43   28   44 1
    44   29   30 ar
    45   29   43 1
    46   30   31 ar
@<TRIPOS>SUBSTRUCTURE
     1 ATP         1 GROUP 0 A     ****
@<TRIPOS>MOLECULE
[[[5-(6-amino-1,8-dihydropurine-6,8-diylium-7-id-9-yl)-3,4-dihydroxy-tetrahydrofuran-2-yl]methoxy-oxido-phosphoryl]oxy-oxido-phosphoryl] phosphate
   44    46     1     0     0
SMALL
USER_CHARGES

@<TRIPOS>ATOM
      1 PG          0.2904    0.2247   -6.9667 P.3       1 ATP        -1.1921
      2 O1G         1.0191   -0.7261   -6.0229 O.co2     1 ATP         0.3195
      3 O2G        -1.1462   -0.1791   -7.2806 O.co2     1 ATP         0.3195
      4 O3G         1.1045    0.6415   -8.1871 O.co2     1 ATP         0.3195
      5 PB          1.2879    2.5812   -5.4481 P.3       1 ATP        -1.1062
      6 O1B         2.2826    2.9502   -6.5260 O.co2     1 ATP         0.3195
      7 O2B         0.6146    3.6427   -4.6071 O.co2     1 ATP         0.3195
      8 O3B         0.1392    1.6193   -6.0995 O.3       1 ATP         0.4672
      9 PA          3.2351    1.6560   -3.4214 P.3       1 ATP        -1.1062
     10 O1A         2.8126    2.5864   -2.3054 O.co2     1 ATP         0.3195
     11 O2A         4.4892    1.9292   -4.2230 O.co2     1 ATP         0.3195
     12 O3A         1.9789    1.4872   -4.4525 O.3       1 ATP         0.4672
     13 O5'         3.2903    0.1346   -2.8241 O.3       1 ATP         0.1618
     14 C5'         2.2816   -0.2918   -1.9206 C.3       1 ATP         0.1504
     15 C4'         2.7248    0.0226   -0.4980 C.3       1 ATP         0.1111
     16 O4'         2.4697    1.4219   -0.2462 O.3       1 ATP        -0.1436
     17 C3'         1.9404   -0.7419    0.5596 C.3       1 ATP         0.1111
     18 O3'         2.7418   -0.8086    1.7389 O.3       1 ATP        -0.2728
     19 C2'         0.7477    0.1630    0.7858 C.3       1 ATP         0.1111
     20 O2'         0.1373   -0.0577    2.0407 O.3       1 ATP        -0.2728
     21 C1'         1.3733    1.5427    0.6747 C.3       1 ATP         0.2693
     22 N9          0.4520    2.5240    0.1767 N.pl3     1 ATP        -0.3222
     23 C8         -1.0247    2.3053   -0.1800 C.ar      1 ATP         0.1640
     24 N7         -1.5580    3.4612   -0.6116 N.2       1 ATP        -0.1640
     25 C5         -0.4873    4.3110   -0.5222 C.ar      1 ATP         0.0820
     26 C6         -0.5728    5.7505   -0.8981 C.ar      1 ATP         0.1640
     27 N6         -1.7163    6.2514   -1.3385 N.pl3     1 ATP        -0.4916
     28 N1          0.5667    6.4301   -0.7475 N.pl3     1 ATP        -0.4390
     29 C2          1.7697    5.7952   -0.2579 C.ar      1 ATP         0.5691
     30 N3          1.8633    4.5450    0.0742 N.ar      1 ATP        -0.4283
     31 C4          0.7014    3.8457   -0.0776 C.ar      1 ATP         0.2226
     32 H5'1        1.3514    0.2330   -2.1577 H         1 ATP        -0.0393
     33 H5'2        2.1280   -1.3678   -2.0460 H         1 ATP        -0.0393
     34 H4'         3.8040   -0.1399   -0.4044 H         1 ATP        -0.0393
     35 H3'         1.6768   -1.7637    0.2732 H         1 ATP        -0.0393
     36 HO3'        2.2231   -1.2979    2.3952 H         1 ATP         0.2010
     37 H2'         0.0002   -0.0084   -0.0014 H         1 ATP        -0.0393
     38 HO2'       -0.1554   -0.9852    2.0577 H         1 ATP         0.2010
     39 H1'         1.7718    1.9211    1.6015 H         1 ATP        -0.0393
     40 H8         -1.6458    1.4054   -0.1318 H         1 ATP         0.0000
     41 HN61       -2.5307    5.6598   -1.4199 H         1 ATP         0.2048
     42 HN62       -1.7773    7.2266   -1.5938 H         1 ATP         0.2048
     43 H2          2.6279    6.4808   -0.1872 H         1 ATP        -0.1292
     44 H44         0.5621    7.4166   -0.9900 H         1 ATP         0.2048
@<TRIPOS>BOND
     1    1    2 2
     2    1    3 1
     3    1    4 1
     4    1    8 1
     5    5    6 2
     6    5    7 1
     7    5    8 1
     8    5   12 1
     9    9   10 2
    10    9   11 1
    11    9   12 1
    12    9   13 1
    13   13   14 1
    14   14   15 1
    15   14   32 1
    16   14   33 1
    17   15   16 1
    18   15   17 1
    19   15   34 1
    20   16   21 1
    21   17   18 1
    22   17   19 1
    23   17   35 1
    24   18   36 1
    25   19   20 1
    26   19   21 1
    27   19   37 1
    28   20   38 1
    29   21   22 1
    30   21   39 1
    31   22   23 ar
    32   22   31 ar
    33   23   24 ar
    34   23   40 1
    35   24   25 ar
    36   25   26 ar
    37   25   31 ar
    38   26   27 1
    39   26   28 ar
    40   27   41 1
    41   27   42 1
    42   28   29 ar
    43   28   44 1
    44   29   30 ar
    45   29   43 1
    46   30   31 ar
@<TRIPOS>SUBSTRUCTURE
     1 ATP         1 GROUP 0 A     ****
@<TRIPOS>MOLECULE
[[[5-(6-amino-1,8-dihydropurine-6,8-diylium-7-id-9-yl)-3,4-dihydroxy-tetrahydrofuran-2-yl]methoxy-oxido-phosphoryl]oxy-oxido-phosphoryl] phosphate
   44    46     1     0     0
SMALL
USER_CHARGES

@<TRIPOS>ATOM
      1 PG          8.0488    2.1833   -3.0378 P.3       1 ATP        -1.1921
      2 O1G         9.2439    1.4362   -2.4553 O.co2     1 ATP         0.3195
      3 O2G         8.2541    2.6845   -4.4634 O.co2     1 ATP         0.3195
      4 O3G         7.4337    3.2123   -2.0950 O.co2     1 ATP         0.3195
      5 PB          6.1849    0.0921   -2.0343 P.3       1 ATP        -1.1062
      6 O1B         7.2246   -0.8619   -1.4899 O.co2     1 ATP         0.3195
      7 O2B         5.3703    0.9719   -1.1125 O.co2     1 ATP         0.3195
      8 O3B         6.8789    1.0294   -3.1784 O.3       1 ATP         0.4672
      9 PA          3.9556   -0.2056   -3.9568 P.3       1 ATP        -1.1062
     10 O1A         3.2059   -1.4054   -4.4936 O.co2     1 ATP         0.3195
     11 O2A         4.5101    0.8435   -4.8959 O.co2     1 ATP         0.3195
     12 O3A         5.1637   -0.7424   -2.9966 O.3       1 ATP         0.4672
     13 O5'         3.0213    0.5153   -2.8245 O.3       1 ATP         0.1618
     14 C5'         2.2816   -0.2918   -1.9206 C.3       1 ATP         0.1504
     15 C4'         2.7248    0.0226   -0.4980 C.3       1 ATP         0.1111
     16 O4'         2.4697    1.4219   -0.2462 O.3       1 ATP        -0.1436
     17 C3'         1.9404   -0.7419    0.5596 C.3       1 ATP         0.1111
     18 O3'         2.7418   -0.8086    1.7389 O.3       1 ATP        -0.2728
     19 C2'         0.7477    0.1630    0.7858 C.3       1 ATP         0.1111
     20 O2'         0.1373   -0.0577    2.0407 O.3       1 ATP        -0.2728
     21 C1'         1.3733    1.5427    0.6747 C.3       1 ATP         0.2693
     22 N9          0.4520    2.5240    0.1767 N.pl3     1 ATP        -0.3222
     23 C8          0.5793    3.3338   -1.1209 C.ar      1 ATP         0.1640
     24 N7         -0.4807    4.1508   -1.2458 N.2       1 ATP        -0.1640
     25 C5         -1.1921    3.8572   -0.1126 C.ar      1 ATP         0.0820
     26 C6         -2.4855    4.5203    0.2163 C.ar      1 ATP         0.1640
     27 N6         -2.9873    5.4319   -0.6020 N.pl3     1 ATP        -0.4916
     28 N1         -3.0414    4.1119    1.3596 N.pl3     1 ATP        -0.4390
     29 C2         -2.4169    3.1071    2.1904 C.ar      1 ATP         0.5691
     30 N3         -1.2928    2.5191    1.9210 N.ar      1 ATP        -0.4283
     31 C4         -0.7202    2.9326    0.7534 C.ar      1 ATP         0.2226
     32 H5'1        1.2163   -0.0770   -2.0471 H         1 ATP        -0.0393
     33 H5'2        2.4655   -1.3443   -2.1563 H         1 ATP        -0.0393
     34 H4'         3.8040   -0.1399   -0.4044 H         1 ATP        -0.0393
     35 H3'         1.6768   -1.7637    0.2732 H         1 ATP        -0.0393
     36 HO3'        2.2231   -1.2979    2.3952 H         1 ATP         0.2010
     37 H2'         0.0002   -0.0084   -0.0014 H         1 ATP        -0.0393
     38 HO2'       -0.1554   -0.9852    2.0577 H         1 ATP         0.2010
     39 H1'         1.7718    1.9211    1.6015 H         1 ATP        -0.0393
     40 H8          1.3565    3.3309   -1.8916 H         1 ATP         0.0000
     41 HN61       -2.4952    5.6785   -1.4487 H         1 ATP         0.2048
     42 HN62       -3.8637    5.8828   -0.3819 H         1 ATP         0.2048
     43 H2         -2.9911    2.8734    3.1000 H         1 ATP        -0.1292
     44 H44        -3.9253    4.5332    1.6302 H         1 ATP         0.2048
@<TRIPOS>BOND
     1    1    2 2
     2    1    3 1
     3    1    4 1
     4    1    8 1
     5    5    6 2
     6    5    7 1
     7    5    8 1
     8    5   12 1
     9    9   10 2
    10    9   11 1
    11    9   12 1
    12    9   13 1
    13   13   14 1
    14   14   15 1
    15   14   32 1
    16   14   33 1
    17   15   16 1
    18   15   17 1
    19   15   34 1
    20   16   21 1
    21   17   18 1
    22   17   19 1
    23   17   35 1
    24   18   36 1
    25   19   20 1
    26   19   21 1
    27   19   37 1
    28   20   38 1
    29   21   22 1
    30   21   39 1
    31   22   23 ar
    32   22   31 ar
    33   23   24 ar
    34   23   40 1
    35   24   25 ar
    36   25   26 ar
    37   25   31 ar
    38   26   27 1
    39   26   28 ar
    40   27   41 1
    41   27   42 1
    42   28   29 ar
    43   28   44 1
    44   29   30 ar
    45   29   43 1
    46   30   31 ar
@<TRIPOS>SUBSTRUCTURE
     1 ATP         1 GROUP 0 A     ****
@<TRIPOS>MOLECULE
[[[5-(6-amino-1,8-dihydropurine-6,8-diylium-7-id-9-yl)-3,4-dihydroxy-tetrahydrofuran-2-yl]methoxy-oxido-phosphoryl]oxy-oxido-phosphoryl] phosphate
   44    46     1     0     0
SMALL
USER_CHARGES

@<TRIPOS>ATOM
      1 PG          6.6110   -0.9024    1.1438 P.3       1 ATP        -1.1921
      2 O1G         7.5617   -2.0937    1.0906 O.co2     1 ATP         0.3195
      3 O2G         6.8926    0.0768    2.2785 O.co2     1 ATP         0.3195
      4 O3G         5.1391   -1.2682    0.9834 O.co2     1 ATP         0.3195
      5 PB          6.8704   -0.4964   -1.7925 P.3       1 ATP        -1.1062
      6 O1B         7.1310    0.7147   -2.6602 O.co2     1 ATP         0.3195
      7 O2B         7.6565   -1.7754   -1.9763 O.co2     1 ATP         0.3195
      8 O3B         6.9555   -0.0477   -0.2239 O.3       1 ATP         0.4672
      9 PA          4.3707   -1.3841   -3.1032 P.3       1 ATP        -1.1062
     10 O1A         4.8196   -2.7866   -3.4509 O.co2     1 ATP         0.3195
     11 O2A         4.3167   -0.3044   -4.1621 O.co2     1 ATP         0.3195
     12 O3A         5.2776   -0.8495   -1.8537 O.3       1 ATP         0.4672
     13 O5'         2.9216   -1.4836   -2.3516 O.3       1 ATP         0.1618
     14 C5'         2.2816   -0.2918   -1.9206 C.3       1 ATP         0.1504
     15 C4'         2.7248    0.0226   -0.4980 C.3       1 ATP         0.1111
     16 O4'         2.4697    1.4219   -0.2462 O.3       1 ATP        -0.1436
     17 C3'         1.9404   -0.7419    0.5596 C.3       1 ATP         0.1111
     18 O3'         2.7418   -0.8086    1.7389 O.3       1 ATP        -0.2728
     19 C2'         0.7477    0.1630    0.7858 C.3       1 ATP         0.1111
     20 O2'         0.1373   -0.0577    2.0407 O.3       1 ATP        -0.2728
     21 C1'         1.3733    1.5427    0.6747 C.3       1 ATP         0.2693
     22 N9          0.4520    2.5240    0.1767 N.pl3     1 ATP        -0.3222
     23 C8         -0.3054    2.4845   -1.1576 C.ar      1 ATP         0.1640
     24 N7         -1.0755    3.5806   -1.2691 N.2       1 ATP        -0.1640
     25 C5         -0.8043    4.2306   -0.0942 C.ar      1 ATP         0.0820
     26 C6         -1.4324    5.5335    0.2646 C.ar      1 ATP         0.1640
     27 N6         -2.2885    6.1054   -0.5675 N.pl3     1 ATP        -0.4916
     28 N1         -1.0537    6.0229    1.4478 N.pl3     1 ATP        -0.4390
     29 C2         -0.1096    5.3242    2.2908 C.ar      1 ATP         0.5691
     30 N3          0.4468    4.1904    1.9960 N.ar      1 ATP        -0.4283
     31 C4          0.0631    3.6855    0.7877 C.ar      1 ATP         0.2226
     32 H5'1        2.5589    0.5217   -2.5976 H         1 ATP        -0.0393
     33 H5'2        1.1982   -0.4388   -1.9617 H         1 ATP        -0.0393
     34 H4'         3.8040   -0.1399   -0.4044 H         1 ATP        -0.0393
     35 H3'         1.6768   -1.7637    0.2732 H         1 ATP        -0.0393
     36 HO3'        2.2231   -1.2979    2.3952 H         1 ATP         0.2010
     37 H2'         0.0002   -0.0084   -0.0014 H         1 ATP        -0.0393
     38 HO2'       -0.6132    0.5577    2.1063 H         1 ATP         0.2010
     39 H1'         1.7718    1.9211    1.6015 H         1 ATP        -0.0393
     40 H8         -0.2991    1.7413   -1.9611 H         1 ATP         0.0000
     41 HN61       -2.5167    5.6603   -1.4447 H         1 ATP         0.2048
     42 HN62       -2.7159    6.9882   -0.3270 H         1 ATP         0.2048
     43 H2          0.1059    5.8491    3.2340 H         1 ATP        -0.1292
     44 H44        -1.4532    6.9099    1.7401 H         1 ATP         0.2048
@<TRIPOS>BOND
     1    1    2 2
     2    1    3 1
     3    1    4 1
     4    1    8 1
     5    5    6 2
     6    5    7 1
     7    5    8 1
     8    5   12 1
     9    9   10 2
    10    9   11 1
    11    9   12 1
    12    9   13 1
    13   13   14 1
    14   14   15 1
    15   14   32 1
    16   14   33 1
    17   15   16 1
    18   15   17 1
    19   15   34 1
    20   16   21 1
    21   17   18 1
    22   17   19 1
    23   17   35 1
    24   18   36 1
    25   19   20 1
    26   19   21 1
    27   19   37 1
    28   20   38 1
    29   21   22 1
    30   21   39 1
    31   22   23 ar
    32   22   31 ar
    33   23   24 ar
    34   23   40 1
    35   24   25 ar
    36   25   26 ar
    37   25   31 ar
    38   26   27 1
    39   26   28 ar
    40   27   41 1
    41   27   42 1
    42   28   29 ar
    43   28   44 1
    44   29   30 ar
    45   29   43 1
    46   30   31 ar
@<TRIPOS>SUBSTRUCTURE
     1 ATP         1 GROUP 0 A     ****
@<TRIPOS>MOLECULE
[[[5-(6-amino-1,8-dihydropurine-6,8-diylium-7-id-9-yl)-3,4-dihydroxy-tetrahydrofuran-2-yl]methoxy-oxido-phosphoryl]oxy-oxido-phosphoryl] phosphate
   44    46     1     0     0
SMALL
USER_CHARGES

@<TRIPOS>ATOM
      1 PG         -1.6794   -0.5175   -6.8405 P.3       1 ATP        -1.1921
      2 O1G        -1.0991   -0.5395   -8.2507 O.co2     1 ATP         0.3195
      3 O2G        -2.2156   -1.8618   -6.3599 O.co2     1 ATP         0.3195
      4 O3G        -2.6062    0.6615   -6.5632 O.co2     1 ATP         0.3195
      5 PB          0.6565    1.0346   -5.8464 P.3       1 ATP        -1.1062
      6 O1B         1.4628    1.0297   -7.1260 O.co2     1 ATP         0.3195
      7 O2B        -0.0952    2.2684   -5.3991 O.co2     1 ATP         0.3195
      8 O3B        -0.3766   -0.2307   -5.8708 O.3       1 ATP         0.4672
      9 PA          2.9240    1.2545   -3.9582 P.3       1 ATP        -1.1062
     10 O1A         2.4677    2.5117   -3.2503 O.co2     1 ATP         0.3195
     11 O2A         4.0284    1.3063   -4.9915 O.co2     1 ATP         0.3195
     12 O3A         1.6158    0.5359   -4.6230 O.3       1 ATP         0.4672
     13 O5'         3.2903    0.1346   -2.8241 O.3       1 ATP         0.1618
     14 C5'         2.2816   -0.2918   -1.9206 C.3       1 ATP         0.1504
     15 C4'         2.7248    0.0226   -0.4980 C.3       1 ATP         0.1111
     16 O4'         2.4697    1.4219   -0.2462 O.3       1 ATP        -0.1436
     17 C3'         1.9404   -0.7419    0.5596 C.3       1 ATP         0.1111
     18 O3'         2.7418   -0.8086    1.7389 O.3       1 ATP        -0.2728
     19 C2'         0.7477    0.1630    0.7858 C.3       1 ATP         0.1111
     20 O2'         0.1373   -0.0577    2.0407 O.3       1 ATP        -0.2728
     21 C1'         1.3733    1.5427    0.6747 C.3       1 ATP         0.2693
     22 N9          0.4520    2.5240    0.1767 N.pl3     1 ATP        -0.3222
     23 C8          0.5793    3.3338   -1.1209 C.ar      1 ATP         0.1640
     24 N7         -0.4807    4.1508   -1.2458 N.2       1 ATP        -0.1640
     25 C5         -1.1921    3.8572   -0.1126 C.ar      1 ATP         0.0820
     26 C6         -2.4855    4.5203    0.2163 C.ar      1 ATP         0.1640
     27 N6         -2.9873    5.4319   -0.6020 N.pl3     1 ATP        -0.4916
     28 N1         -3.0414    4.1119    1.3596 N.pl3     1 ATP        -0.4390
     29 C2         -2.4169    3.1071    2.1904 C.ar      1 ATP         0.5691
     30 N3         -1.2928    2.5191    1.9210 N.ar      1 ATP        -0.4283
     31 C4         -0.7202    2.9326    0.7534 C.ar      1 ATP         0.2226
     32 H5'1        1.3514    0.2330   -2.1577 H         1 ATP        -0.0393
     33 H5'2        2.1280   -1.3678   -2.0460 H         1 ATP        -0.0393
     34 H4'         3.8040   -0.1399   -0.4044 H         1 ATP        -0.0393
     35 H3'         1.6768   -1.7637    0.2732 H         1 ATP        -0.0393
     36 HO3'        3.5553   -1.2733    1.4913 H         1 ATP         0.2010
     37 H2'         0.0002   -0.0084   -0.0014 H         1 ATP        -0.0393
     38 HO2'       -0.1554   -0.9852    2.0577 H         1 ATP         0.2010
     39 H1'         1.7718    1.9211    1.6015 H         1 ATP        -0.0393
     40 H8          1.3565    3.3309   -1.8916 H         1 ATP         0.0000
     41 HN61       -2.4952    5.6785   -1.4487 H         1 ATP         0.2048
     42 HN62       -3.8637    5.8828   -0.3819 H         1 ATP         0.2048
     43 H2         -2.9911    2.8734    3.1000 H         1 ATP        -0.1292
     44 H44        -3.9253    4.5332    1.6302 H         1 ATP         0.2048
@<TRIPOS>BOND
     1    1    2 2
     2    1    3 1
     3    1    4 1
     4    1    8 1
     5    5    6 2
     6    5    7 1
     7    5    8 1
     8    5   12 1
     9    9   10 2
    10    9   11 1
    11    9   12 1
    12    9   13 1
    13   13   14 1
    14   14   15 1
    15   14   32 1
    16   14   33 1
    17   15   16 1
    18   15   17 1
    19   15   34 1
    20   16   21 1
    21   17   18 1
    22   17   19 1
    23   17   35 1
    24   18   36 1
    25   19   20 1
    26   19   21 1
    27   19   37 1
    28   20   38 1
    29   21   22 1
    30   21   39 1
    31   22   23 ar
    32   22   31 ar
    33   23   24 ar
    34   23   40 1
    35   24   25 ar
    36   25   26 ar
    37   25   31 ar
    38   26   27 1
    39   26   28 ar
    40   27   41 1
    41   27   42 1
    42   28   29 ar
    43   28   44 1
    44   29   30 ar
    45   29   43 1
    46   30   31 ar
@<TRIPOS>SUBSTRUCTURE
     1 ATP         1 GROUP 0 A     ****
@<TRIPOS>MOLECULE
[[[5-(6-amino-1,8-dihydropurine-6,8-diylium-7-id-9-yl)-3,4-dihydroxy-tetrahydrofuran-2-yl]methoxy-oxido-phosphoryl]oxy-oxido-phosphoryl] phosphate
   44    46     1     0     0
SMALL
USER_CHARGES

@<TRIPOS>ATOM
      1 PG         -1.5615    1.3731   -3.8699 P.3       1 ATP        -1.1921
      2 O1G        -1.9894    2.5521   -3.0022 O.co2     1 ATP         0.3195
      3 O2G        -2.6818    0.7732   -4.7129 O.co2     1 ATP         0.3195
      4 O3G        -0.7022    0.3421   -3.1457 O.co2     1 ATP         0.3195
      5 PB          0.8726    2.8387   -4.7537 P.3       1 ATP        -1.1062
      6 O1B         1.5091    3.0882   -6.1029 O.co2     1 ATP         0.3195
      7 O2B         0.6387    3.9694   -3.7769 O.co2     1 ATP         0.3195
      8 O3B        -0.5330    2.0361   -4.9755 O.3       1 ATP         0.4672
      9 PA          3.2351    1.6560   -3.4214 P.3       1 ATP        -1.1062
     10 O1A         3.3085    2.6225   -2.2594 O.co2     1 ATP         0.3195
     11 O2A         4.1915    1.7751   -4.5880 O.co2     1 ATP         0.3195
     12 O3A         1.7049    1.6571   -3.9944 O.3       1 ATP         0.4672
     13 O5'         3.2903    0.1346   -2.8241 O.3       1 ATP         0.1618
     14 C5'         2.2816   -0.2918   -1.9206 C.3       1 ATP         0.1504
     15 C4'         2.7248    0.0226   -0.4980 C.3       1 ATP         0.1111
     16 O4'         2.4697    1.4219   -0.2462 O.3       1 ATP        -0.1436
     17 C3'         1.9404   -0.7419    0.5596 C.3       1 ATP         0.1111
     18 O3'         2.7418   -0.8086    1.7389 O.3       1 ATP        -0.2728
     19 C2'         0.7477    0.1630    0.7858 C.3       1 ATP         0.1111
     20 O2'         0.1373   -0.0577    2.0407 O.3       1 ATP        -0.2728
     21 C1'         1.3733    1.5427    0.6747 C.3       1 ATP         0.2693
     22 N9          0.4520    2.5240    0.1767 N.pl3     1 ATP        -0.3222
     23 C8         -1.0247    2.3053   -0.1800 C.ar      1 ATP         0.1640
     24 N7         -1.5580    3.4612   -0.6116 N.2       1 ATP        -0.1640
     25 C5         -0.4873    4.3110   -0.5222 C.ar      1 ATP         0.0820
     26 C6         -0.5728    5.7505   -0.8981 C.ar      1 ATP         0.1640
     27 N6         -1.7163    6.2514   -1.3385 N.pl3     1 ATP        -0.4916
     28 N1          0.5667    6.4301   -0.7475 N.pl3     1 ATP        -0.4390
     29 C2          1.7697    5.7952   -0.2579 C.ar      1 ATP         0.5691
     30 N3          1.8633    4.5450    0.0742 N.ar      1 ATP        -0.4283
     31 C4          0.7014    3.8457   -0.0776 C.ar      1 ATP         0.2226
     32 H5'1        1.3514    0.2330   -2.1577 H         1 ATP        -0.0393
     33 H5'2        2.1280   -1.3678   -2.0460 H         1 ATP        -0.0393
     34 H4'         3.8040   -0.1399   -0.4044 H         1 ATP        -0.0393
     35 H3'         1.6768   -1.7637    0.2732 H         1 ATP        -0.0393
     36 HO3'        2.2231   -1.2979    2.3952 H         1 ATP         0.2010
     37 H2'         0.0002   -0.0084   -0.0014 H         1 ATP        -0.0393
     38 HO2'       -0.6132    0.5577    2.1063 H         1 ATP         0.2010
     39 H1'         1.7718    1.9211    1.6015 H         1 ATP        -0.0393
     40 H8         -1.6458    1.4054   -0.1318 H         1 ATP         0.0000
     41 HN61       -2.5307    5.6598   -1.4199 H         1 ATP         0.2048
     42 HN62       -1.7773    7.2266   -1.5938 H         1 ATP         0.2048
     43 H2          2.6279    6.4808   -0.1872 H         1 ATP        -0.1292
     44 H44         0.5621    7.4166   -0.9900 H         1 ATP         0.2048
@<TRIPOS>BOND
     1    1    2 2
     2    1    3 1
     3    1    4 1
     4    1    8 1
     5    5    6 2
     6    5    7 1
     7    5    8 1
     8    5   12 1
     9    9   10 2
    10    9   11 1
    11    9   12 1
    12    9   13 1
    13   13   14 1
    14   14   15 1
    15   14   32 1
    16   14   33 1
    17   15   16 1
    18   15   17 1
    19   15   34 1
    20   16   21 1
    21   17   18 1
    22   17   19 1
    23   17   35 1
    24   18   36 1
    25   19   20 1
    26   19   21 1
    27   19   37 1
    28   20   38 1
    29   21   22 1
    30   21   39 1
    31   22   23 ar
    32   22   31 ar
    33   23   24 ar
    34   23   40 1
    35   24   25 ar
    36   25   26 ar
    37   25   31 ar
    38   26   27 1
    39   26   28 ar
    40   27   41 1
    41   27   42 1
    42   28   29 ar
    43   28   44 1
    44   29   30 ar
    45   29   43 1
    46   30   31 ar
@<TRIPOS>SUBSTRUCTURE
     1 ATP         1 GROUP 0 A     ****
@<TRIPOS>MOLECULE
[[[5-(6-amino-1,8-dihydropurine-6,8-diylium-7-id-9-yl)-3,4-dihydroxy-tetrahydrofuran-2-yl]methoxy-oxido-phosphoryl]oxy-oxido-phosphoryl] phosphate
   44    46     1     0     0
SMALL
USER_CHARGES

@<TRIPOS>ATOM
      1 PG         -2.2764    2.6642   -5.1571 P.3       1 ATP        -1.1921
      2 O1G        -3.2876    1.5495   -5.4030 O.co2     1 ATP         0.3195
      3 O2G        -2.5857    3.5383   -3.9463 O.co2     1 ATP         0.3195
      4 O3G        -1.8869    3.4437   -6.4087 O.co2     1 ATP         0.3195
      5 PB         -0.0144    0.7780   -5.5806 P.3       1 ATP        -1.1062
      6 O1B        -0.8305   -0.4858   -5.7364 O.co2     1 ATP         0.3195
      7 O2B         0.6013    1.4654   -6.7789 O.co2     1 ATP         0.3195
      8 O3B        -0.8918    1.8707   -4.7409 O.3       1 ATP         0.4672
      9 PA          2.2228    1.5519   -3.8055 P.3       1 ATP        -1.1062
     10 O1A         1.4562    2.5268   -2.9386 O.co2     1 ATP         0.3195
     11 O2A         3.1599    2.0483   -4.8850 O.co2     1 ATP         0.3195
     12 O3A         1.1559    0.5105   -4.4741 O.3       1 ATP         0.4672
     13 O5'         3.0213    0.5153   -2.8245 O.3       1 ATP         0.1618
     14 C5'         2.2816   -0.2918   -1.9206 C.3       1 ATP         0.1504
     15 C4'         2.7248    0.0226   -0.4980 C.3       1 ATP         0.1111
     16 O4'         2.4697    1.4219   -0.2462 O.3       1 ATP        -0.1436
     17 C3'         1.9404   -0.7419    0.5596 C.3       1 ATP         0.1111
     18 O3'         2.7418   -0.8086    1.7389 O.3       1 ATP        -0.2728
     19 C2'         0.7477    0.1630    0.7858 C.3       1 ATP         0.1111
     20 O2'         0.1373   -0.0577    2.0407 O.3       1 ATP        -0.2728
     21 C1'         1.3733    1.5427    0.6747 C.3       1 ATP         0.2693
     22 N9          0.4520    2.5240    0.1767 N.pl3     1 ATP        -0.3222
     23 C8         -1.0660    2.5608    0.3999 C.ar      1 ATP         0.1640
     24 N7         -1.5852    3.6333   -0.2221 N.2       1 ATP        -0.1640
     25 C5         -0.4682    4.1996   -0.7771 C.ar      1 ATP         0.0820
     26 C6         -0.5216    5.4476   -1.5899 C.ar      1 ATP         0.1640
     27 N6         -1.6813    6.0510   -1.7982 N.pl3     1 ATP        -0.4916
     28 N1          0.6621    5.8575   -2.0523 N.pl3     1 ATP        -0.4390
     29 C2          1.8795    5.1301   -1.7717 C.ar      1 ATP         0.5691
     30 N3          1.9458    4.0434   -1.0670 N.ar      1 ATP        -0.4283
     31 C4          0.7388    3.6199   -0.5917 C.ar      1 ATP         0.2226
     32 H5'1        1.2163   -0.0770   -2.0471 H         1 ATP        -0.0393
     33 H5'2        2.4655   -1.3443   -2.1563 H         1 ATP        -0.0393
     34 H4'         3.8040   -0.1399   -0.4044 H         1 ATP        -0.0393
     35 H3'         1.6768   -1.7637    0.2732 H         1 ATP        -0.0393
     36 HO3'        3.5553   -1.2733    1.4913 H         1 ATP         0.2010
     37 H2'         0.0002   -0.0084   -0.0014 H         1 ATP        -0.0393
     38 HO2'        0.8091    0.1203    2.7213 H         1 ATP         0.2010
     39 H1'         1.7718    1.9211    1.6015 H         1 ATP        -0.0393
     40 H8         -1.7235    1.8833    0.9537 H         1 ATP         0.0000
     41 HN61       -2.5296    5.6672   -1.4072 H         1 ATP         0.2048
     42 HN62       -1.7205    6.8969   -2.3483 H         1 ATP         0.2048
     43 H2          2.7750    5.5878   -2.2190 H         1 ATP        -0.1292
     44 H44         0.6808    6.7046   -2.6128 H         1 ATP         0.2048
@<TRIPOS>BOND
     1    1    2 2
     2    1    3 1
     3    1    4 1
     4    1    8 1
     5    5    6 2
     6    5    7 1
     7    5    8 1
     8    5   12 1
     9    9   10 2
    10    9   11 1
    11    9   12 1
    12    9   13 1
    13   13   14 1
    14   14   15 1
    15   14   32 1
    16   14   33 1
    17   15   16 1
    18   15   17 1
    19   15   34 1
    20   16   21 1
    21   17   18 1
    22   17   19 1
    23   17   35 1
    24   18   36 1
    25   19   20 1
    26   19   21 1
    27   19   37 1
    28   20   38 1
    29   21   22 1
    30   21   39 1
    31   22   23 ar
    32   22   31 ar
    33   23   24 ar
    34   23   40 1
    35   24   25 ar
    36   25   26 ar
    37   25   31 ar
    38   26   27 1
    39   26   28 ar
    40   27   41 1
    41   27   42 1
    42   28   29 ar
    43   28   44 1
    44   29   30 ar
    45   29   43 1
    46   30   31 ar
@<TRIPOS>SUBSTRUCTURE
     1 ATP         1 GROUP 0 A     ****
@<TRIPOS>MOLECULE
[[[5-(6-amino-1,8-dihydropurine-6,8-diylium-7-id-9-yl)-3,4-dihydroxy-tetrahydrofuran-2-yl]methoxy-oxido-phosphoryl]oxy-oxido-phosphoryl] phosphate
   44    46     1     0     0
SMALL
USER_CHARGES

@<TRIPOS>ATOM
      1 PG          6.0861    5.4988   -4.0620 P.3       1 ATP        -1.1921
      2 O1G         7.0780    5.8924   -2.9724 O.co2     1 ATP         0.3195
      3 O2G         6.7320    4.9945   -5.3482 O.co2     1 ATP         0.3195
      4 O3G         4.9621    6.5065   -4.2792 O.co2     1 ATP         0.3195
      5 PB          4.4263    4.0139   -2.0887 P.3       1 ATP        -1.1062
      6 O1B         5.3338    4.1848   -0.8908 O.co2     1 ATP         0.3195
      7 O2B         3.1604    4.8284   -2.2347 O.co2     1 ATP         0.3195
      8 O3B         5.3156    4.1755   -3.4496 O.3       1 ATP         0.4672
      9 PA          3.2351    1.6560   -3.4214 P.3       1 ATP        -1.1062
     10 O1A         4.0724    1.6996   -4.6810 O.co2     1 ATP         0.3195
     11 O2A         1.8026    2.1439   -3.4277 O.co2     1 ATP         0.3195
     12 O3A         4.0492    2.4323   -2.2364 O.3       1 ATP         0.4672
     13 O5'         3.2903    0.1346   -2.8241 O.3       1 ATP         0.1618
     14 C5'         2.2816   -0.2918   -1.9206 C.3       1 ATP         0.1504
     15 C4'         2.7248    0.0226   -0.4980 C.3       1 ATP         0.1111
     16 O4'         2.4697    1.4219   -0.2462 O.3       1 ATP        -0.1436
     17 C3'         1.9404   -0.7419    0.5596 C.3       1 ATP         0.1111
     18 O3'         2.7418   -0.8086    1.7389 O.3       1 ATP        -0.2728
     19 C2'         0.7477    0.1630    0.7858 C.3       1 ATP         0.1111
     20 O2'         0.1373   -0.0577    2.0407 O.3       1 ATP        -0.2728
     21 C1'         1.3733    1.5427    0.6747 C.3       1 ATP         0.2693
     22 N9          0.4520    2.5240    0.1767 N.pl3     1 ATP        -0.3222
     23 C8          0.5793    3.3338   -1.1209 C.ar      1 ATP         0.1640
     24 N7         -0.4807    4.1508   -1.2458 N.2       1 ATP        -0.1640
     25 C5         -1.1921    3.8572   -0.1126 C.ar      1 ATP         0.0820
     26 C6         -2.4855    4.5203    0.2163 C.ar      1 ATP         0.1640
     27 N6         -2.9873    5.4319   -0.6020 N.pl3     1 ATP        -0.4916
     28 N1         -3.0414    4.1119    1.3596 N.pl3     1 ATP        -0.4390
     29 C2         -2.4169    3.1071    2.1904 C.ar      1 ATP         0.5691
     30 N3         -1.2928    2.5191    1.9210 N.ar      1 ATP        -0.4283
     31 C4         -0.7202    2.9326    0.7534 C.ar      1 ATP         0.2226
     32 H5'1        1.3514    0.2330   -2.1577 H         1 ATP        -0.0393
     33 H5'2        2.1280   -1.3678   -2.0460 H         1 ATP        -0.0393
     34 H4'         3.8040   -0.1399   -0.4044 H         1 ATP        -0.0393
     35 H3'         1.6768   -1.7637    0.2732 H         1 ATP        -0.0393
     36 HO3'        2.2231   -1.2979    2.3952 H         1 ATP         0.2010
     37 H2'         0.0002   -0.0084   -0.0014 H         1 ATP        -0.0393
     38 HO2'       -0.1554   -0.9852    2.0577 H         1 ATP         0.2010
     39 H1'         1.7718    1.9211    1.6015 H         1 ATP        -0.0393
     40 H8          1.3565    3.3309   -1.8916 H         1 ATP         0.0000
     41 HN61       -2.4952    5.6785   -1.4487 H         1 ATP         0.2048
     42 HN62       -3.8637    5.8828   -0.3819 H         1 ATP         0.2048
     43 H2         -2.9911    2.8734    3.1000 H         1 ATP        -0.1292
     44 H44        -3.9253    4.5332    1.6302 H         1 ATP         0.2048
@<TRIPOS>BOND
     1    1    2 2
     2    1    3 1
     3    1    4 1
     4    1    8 1
     5    5    6 2
     6    5    7 1
     7    5    8 1
     8    5   12 1
     9    9   10 2
    10    9   11 1
    11    9   12 1
    12    9   13 1
    13   13   14 1
    14   14   15 1
    15   14   32 1
    16   14   33 1
    17   15   16 1
    18   15   17 1
    19   15   34 1
    20   16   21 1
    21   17   18 1
    22   17   19 1
    23   17   35 1
    24   18   36 1
    25   19   20 1
    26   19   21 1
    27   19   37 1
    28   20   38 1
    29   21   22 1
    30   21   39 1
    31   22   23 ar
    32   22   31 ar
    33   23   24 ar
    34   23   40 1
    35   24   25 ar
    36   25   26 ar
    37   25   31 ar
    38   26   27 1
    39   26   28 ar
    40   27   41 1
    41   27   42 1
    42   28   29 ar
    43   28   44 1
    44   29   30 ar
    45   29   43 1
    46   30   31 ar
@<TRIPOS>SUBSTRUCTURE
     1 ATP         1 GROUP 0 A     ****
@<TRIPOS>MOLECULE
[[[5-(6-amino-1,8-dihydropurine-6,8-diylium-7-id-9-yl)-3,4-dihydroxy-tetrahydrofuran-2-yl]methoxy-oxido-phosphoryl]oxy-oxido-phosphoryl] phosphate
   44    46     1     0     0
SMALL
USER_CHARGES

@<TRIPOS>ATOM
      1 PG          6.7854    3.8069    0.5039 P.3       1 ATP        -1.1921
      2 O1G         7.9271    4.2482   -0.4057 O.co2     1 ATP         0.3195
      3 O2G         6.1681    4.9310    1.3291 O.co2     1 ATP         0.3195
      4 O3G         7.0707    2.5341    1.2943 O.co2     1 ATP         0.3195
      5 PB          5.5753    2.2142   -1.6991 P.3       1 ATP        -1.1062
      6 O1B         6.5363    2.6200   -2.7943 O.co2     1 ATP         0.3195
      7 O2B         5.6666    0.8556   -1.0409 O.co2     1 ATP         0.3195
      8 O3B         5.5861    3.3630   -0.5375 O.3       1 ATP         0.4672
      9 PA          3.2351    1.6560   -3.4214 P.3       1 ATP        -1.1062
     10 O1A         4.0724    1.6996   -4.6810 O.co2     1 ATP         0.3195
     11 O2A         1.8026    2.1439   -3.4277 O.co2     1 ATP         0.3195
     12 O3A         4.0492    2.4323   -2.2364 O.3       1 ATP         0.4672
     13 O5'         3.2903    0.1346   -2.8241 O.3       1 ATP         0.1618
     14 C5'         2.2816   -0.2918   -1.9206 C.3       1 ATP         0.1504
     15 C4'         2.7248    0.0226   -0.4980 C.3       1 ATP         0.1111
     16 O4'         2.4697    1.4219   -0.2462 O.3       1 ATP        -0.1436
     17 C3'         1.9404   -0.7419    0.5596 C.3       1 ATP         0.1111
     18 O3'         2.7418   -0.8086    1.7389 O.3       1 ATP        -0.2728
     19 C2'         0.7477    0.1630    0.7858 C.3       1 ATP         0.1111
     20 O2'         0.1373   -0.0577    2.0407 O.3       1 ATP        -0.2728
     21 C1'         1.3733    1.5427    0.6747 C.3       1 ATP         0.2693
     22 N9          0.4520    2.5240    0.1767 N.pl3     1 ATP        -0.3222
     23 C8          0.5793    3.3338   -1.1209 C.ar      1 ATP         0.1640
     24 N7         -0.4807    4.1508   -1.2458 N.2       1 ATP        -0.1640
     25 C5         -1.1921    3.8572   -0.1126 C.ar      1 ATP         0.0820
     26 C6         -2.4855    4.5203    0.2163 C.ar      1 ATP         0.1640
     27 N6         -2.9873    5.4319   -0.6020 N.pl3     1 ATP        -0.4916
     28 N1         -3.0414    4.1119    1.3596 N.pl3     1 ATP        -0.4390
     29 C2         -2.4169    3.1071    2.1904 C.ar      1 ATP         0.5691
     30 N3         -1.2928    2.5191    1.9210 N.ar      1 ATP        -0.4283
     31 C4         -0.7202    2.9326    0.7534 C.ar      1 ATP         0.2226
     32 H5'1        1.3514    0.2330   -2.1577 H         1 ATP        -0.0393
     33 H5'2        2.1280   -1.3678   -2.0460 H         1 ATP        -0.0393
     34 H4'         3.8040   -0.1399   -0.4044 H         1 ATP        -0.0393
     35 H3'         1.6768   -1.7637    0.2732 H         1 ATP        -0.0393
     36 HO3'        2.2231   -1.2979    2.3952 H         1 ATP         0.2010
     37 H2'         0.0002   -0.0084   -0.0014 H         1 ATP        -0.0393
     38 HO2'       -0.1554   -0.9852    2.0577 H         1 ATP         0.2010
     39 H1'         1.7718    1.9211    1.6015 H         1 ATP        -0.0393
     40 H8          1.3565    3.3309   -1.8916 H         1 ATP         0.0000
     41 HN61       -2.4952    5.6785   -1.4487 H         1 ATP         0.2048
     42 HN62       -3.8637    5.8828   -0.3819 H         1 ATP         0.2048
     43 H2         -2.9911    2.8734    3.1000 H         1 ATP        -0.1292
     44 H44        -3.9253    4.5332    1.6302 H         1 ATP         0.2048
@<TRIPOS>BOND
     1    1    2 2
     2    1    3 1
     3    1    4 1
     4    1    8 1
     5    5    6 2
     6    5    7 1
     7    5    8 1
     8    5   12 1
     9    9   10 2
    10    9   11 1
    11    9   12 1
    12    9   13 1
    13   13   14 1
    14   14   15 1
    15   14   32 1
    16   14   33 1
    17   15   16 1
    18   15   17 1
    19   15   34 1
    20   16   21 1
    21   17   18 1
    22   17   19 1
    23   17   35 1
    24   18   36 1
    25   19   20 1
    26   19   21 1
    27   19   37 1
    28   20   38 1
    29   21   22 1
    30   21   39 1
    31   22   23 ar
    32   22   31 ar
    33   23   24 ar
    34   23   40 1
    35   24   25 ar
    36   25   26 ar
    37   25   31 ar
    38   26   27 1
    39   26   28 ar
    40   27   41 1
    41   27   42 1
    42   28   29 ar
    43   28   44 1
    44   29   30 ar
    45   29   43 1
    46   30   31 ar
@<TRIPOS>SUBSTRUCTURE
     1 ATP         1 GROUP 0 A     ****
@<TRIPOS>MOLECULE
[[[5-(6-amino-1,8-dihydropurine-6,8-diylium-7-id-9-yl)-3,4-dihydroxy-tetrahydrofuran-2-yl]methoxy-oxido-phosphoryl]oxy-oxido-phosphoryl] phosphate
   44    46     1     0     0
SMALL
USER_CHARGES

@<TRIPOS>ATOM
      1 PG          8.3067   -1.1885   -0.3874 P.3       1 ATP        -1.1921
      2 O1G         7.7351   -0.5658    0.8821 O.co2     1 ATP         0.3195
      3 O2G         8.6633   -2.6655   -0.2580 O.co2     1 ATP         0.3195
      4 O3G         9.3760   -0.3439   -1.0724 O.co2     1 ATP         0.3195
      5 PB          6.1849    0.0921   -2.0343 P.3       1 ATP        -1.1062
      6 O1B         5.3909    0.7042   -0.9018 O.co2     1 ATP         0.3195
      7 O2B         7.0869    0.9381   -2.9050 O.co2     1 ATP         0.3195
      8 O3B         7.0470   -1.1674   -1.4516 O.3       1 ATP         0.4672
      9 PA          3.9556   -0.2056   -3.9568 P.3       1 ATP        -1.1062
     10 O1A         3.2059   -1.4054   -4.4936 O.co2     1 ATP         0.3195
     11 O2A         4.5101    0.8435   -4.8959 O.co2     1 ATP         0.3195
     12 O3A         5.1637   -0.7424   -2.9966 O.3       1 ATP         0.4672
     13 O5'         3.0213    0.5153   -2.8245 O.3       1 ATP         0.1618
     14 C5'         2.2816   -0.2918   -1.9206 C.3       1 ATP         0.1504
     15 C4'         2.7248    0.0226   -0.4980 C.3       1 ATP         0.1111
     16 O4'         2.4697    1.4219   -0.2462 O.3       1 ATP        -0.1436
     17 C3'         1.9404   -0.7419    0.5596 C.3       1 ATP         0.1111
     18 O3'         2.7418   -0.8086    1.7389 O.3       1 ATP        -0.2728
     19 C2'         0.7477    0.1630    0.7858 C.3       1 ATP         0.1111
     20 O2'         0.1373   -0.0577    2.0407 O.3       1 ATP        -0.2728
     21 C1'         1.3733    1.5427    0.6747 C.3       1 ATP         0.2693
     22 N9          0.4520    2.5240    0.1767 N.pl3     1 ATP        -0.3222
     23 C8          0.1798    2.8712   -1.2933 C.ar      1 ATP         0.1640
     24 N7         -0.7494    3.8400   -1.3610 N.2       1 ATP        -0.1640
     25 C5         -1.0173    4.0603   -0.0358 C.ar      1 ATP         0.0820
     26 C6         -2.0105    5.0717    0.4241 C.ar      1 ATP         0.1640
     27 N6         -2.6723    5.7982   -0.4628 N.pl3     1 ATP        -0.4916
     28 N1         -2.1445    5.1522    1.7502 N.pl3     1 ATP        -0.4390
     29 C2         -1.3755    4.3143    2.6427 C.ar      1 ATP         0.5691
     30 N3         -0.5075    3.4292    2.2616 N.ar      1 ATP        -0.4283
     31 C4         -0.3667    3.3425    0.9070 C.ar      1 ATP         0.2226
     32 H5'1        1.2163   -0.0770   -2.0471 H         1 ATP        -0.0393
     33 H5'2        2.4655   -1.3443   -2.1563 H         1 ATP        -0.0393
     34 H4'         3.8040   -0.1399   -0.4044 H         1 ATP        -0.0393
     35 H3'         1.6768   -1.7637    0.2732 H         1 ATP        -0.0393
     36 HO3'        3.5553   -1.2733    1.4913 H         1 ATP         0.2010
     37 H2'         0.0002   -0.0084   -0.0014 H         1 ATP        -0.0393
     38 HO2'       -0.1554   -0.9852    2.0577 H         1 ATP         0.2010
     39 H1'         1.7718    1.9211    1.6015 H         1 ATP        -0.0393
     40 H8          0.6089    2.4651   -2.2147 H         1 ATP         0.0000
     41 HN61       -2.5055    5.6680   -1.4503 H         1 ATP         0.2048
     42 HN62       -3.3462    6.4841   -0.1542 H         1 ATP         0.2048
     43 H2         -1.5932    4.4937    3.7066 H         1 ATP        -0.1292
     44 H44        -2.8098    5.8270    2.1160 H         1 ATP         0.2048
@<TRIPOS>BOND
     1    1    2 2
     2    1    3 1
     3    1    4 1
     4    1    8 1
     5    5    6 2
     6    5    7 1
     7    5    8 1
     8    5   12 1
     9    9   10 2
    10    9   11 1
    11    9   12 1
    12    9   13 1
    13   13   14 1
    14   14   15 1
    15   14   32 1
    16   14   33 1
    17   15   16 1
    18   15   17 1
    19   15   34 1
    20   16   21 1
    21   17   18 1
    22   17   19 1
    23   17   35 1
    24   18   36 1
    25   19   20 1
    26   19   21 1
    27   19   37 1
    28   20   38 1
    29   21   22 1
    30   21   39 1
    31   22   23 ar
    32   22   31 ar
    33   23   24 ar
    34   23   40 1
    35   24   25 ar
    36   25   26 ar
    37   25   31 ar
    38   26   27 1
    39   26   28 ar
    40   27   41 1
    41   27   42 1
    42   28   29 ar
    43   28   44 1
    44   29   30 ar
    45   29   43 1
    46   30   31 ar
@<TRIPOS>SUBSTRUCTURE
     1 ATP         1 GROUP 0 A     ****
@<TRIPOS>MOLECULE
[[[5-(6-amino-1,8-dihydropurine-6,8-diylium-7-id-9-yl)-3,4-dihydroxy-tetrahydrofuran-2-yl]methoxy-oxido-phosphoryl]oxy-oxido-phosphoryl] phosphate
   44    46     1     0     0
SMALL
USER_CHARGES

@<TRIPOS>ATOM
      1 PG          3.3812    4.7896   -0.7051 P.3       1 ATP        -1.1921
      2 O1G         4.4651    5.6343   -1.3665 O.co2     1 ATP         0.3195
      3 O2G         2.6992    5.4594    0.4831 O.co2     1 ATP         0.3195
      4 O3G         3.7804    3.3380   -0.4610 O.co2     1 ATP         0.3195
      5 PB          2.2458    4.0719   -3.3602 P.3       1 ATP        -1.1062
      6 O1B         0.8445    4.0644   -3.9292 O.co2     1 ATP         0.3195
      7 O2B         3.3917    4.7155   -4.1087 O.co2     1 ATP         0.3195
      8 O3B         2.1957    4.6852   -1.8468 O.3       1 ATP         0.4672
      9 PA          2.9240    1.2545   -3.9582 P.3       1 ATP        -1.1062
     10 O1A         4.1682    1.5224   -4.7766 O.co2     1 ATP         0.3195
     11 O2A         1.6205    0.8833   -4.6314 O.co2     1 ATP         0.3195
     12 O3A         2.6642    2.5395   -2.9830 O.3       1 ATP         0.4672
     13 O5'         3.2903    0.1346   -2.8241 O.3       1 ATP         0.1618
     14 C5'         2.2816   -0.2918   -1.9206 C.3       1 ATP         0.1504
     15 C4'         2.7248    0.0226   -0.4980 C.3       1 ATP         0.1111
     16 O4'         2.4697    1.4219   -0.2462 O.3       1 ATP        -0.1436
     17 C3'         1.9404   -0.7419    0.5596 C.3       1 ATP         0.1111
     18 O3'         2.7418   -0.8086    1.7389 O.3       1 ATP        -0.2728
     19 C2'         0.7477    0.1630    0.7858 C.3       1 ATP         0.1111
     20 O2'         0.1373   -0.0577    2.0407 O.3       1 ATP        -0.2728
     21 C1'         1.3733    1.5427    0.6747 C.3       1 ATP         0.2693
     22 N9          0.4520    2.5240    0.1767 N.pl3     1 ATP        -0.3222
     23 C8          0.1798    2.8712   -1.2933 C.ar      1 ATP         0.1640
     24 N7         -0.7494    3.8400   -1.3610 N.2       1 ATP        -0.1640
     25 C5         -1.0173    4.0603   -0.0358 C.ar      1 ATP         0.0820
     26 C6         -2.0105    5.0717    0.4241 C.ar      1 ATP         0.1640
     27 N6         -2.6723    5.7982   -0.4628 N.pl3     1 ATP        -0.4916
     28 N1         -2.1445    5.1522    1.7502 N.pl3     1 ATP        -0.4390
     29 C2         -1.3755    4.3143    2.6427 C.ar      1 ATP         0.5691
     30 N3         -0.5075    3.4292    2.2616 N.ar      1 ATP        -0.4283
     31 C4         -0.3667    3.3425    0.9070 C.ar      1 ATP         0.2226
     32 H5'1        1.3514    0.2330   -2.1577 H         1 ATP        -0.0393
     33 H5'2        2.1280   -1.3678   -2.0460 H         1 ATP        -0.0393
     34 H4'         3.8040   -0.1399   -0.4044 H         1 ATP        -0.0393
     35 H3'         1.6768   -1.7637    0.2732 H         1 ATP        -0.0393
     36 HO3'        2.2231   -1.2979    2.3952 H         1 ATP         0.2010
     37 H2'         0.0002   -0.0084   -0.0014 H         1 ATP        -0.0393
     38 HO2'       -0.1554   -0.9852    2.0577 H         1 ATP         0.2010
     39 H1'         1.7718    1.9211    1.6015 H         1 ATP        -0.0393
     40 H8          0.6089    2.4651   -2.2147 H         1 ATP         0.0000
     41 HN61       -2.5055    5.6680   -1.4503 H         1 ATP         0.2048
     42 HN62       -3.3462    6.4841   -0.1542 H         1 ATP         0.2048
     43 H2         -1.5932    4.4937    3.7066 H         1 ATP        -0.1292
     44 H44        -2.8098    5.8270    2.1160 H         1 ATP         0.2048
@<TRIPOS>BOND
     1    1    2 2
     2    1    3 1
     3    1    4 1
     4    1    8 1
     5    5    6 2
     6    5    7 1
     7    5    8 1
     8    5   12 1
     9    9   10 2
    10    9   11 1
    11    9   12 1
    12    9   13 1
    13   13   14 1
    14   14   15 1
    15   14   32 1
    16   14   33 1
    17   15   16 1
    18   15   17 1
    19   15   34 1
    20   16   21 1
    21   17   18 1
    22   17   19 1
    23   17   35 1
    24   18   36 1
    25   19   20 1
    26   19   21 1
    27   19   37 1
    28   20   38 1
    29   21   22 1
    30   21   39 1
    31   22   23 ar
    32   22   31 ar
    33   23   24 ar
    34   23   40 1
    35   24   25 ar
    36   25   26 ar
    37   25   31 ar
    38   26   27 1
    39   26   28 ar
    40   27   41 1
    41   27   42 1
    42   28   29 ar
    43   28   44 1
    44   29   30 ar
    45   29   43 1
    46   30   31 ar
@<TRIPOS>SUBSTRUCTURE
     1 ATP         1 GROUP 0 A     ****
@<TRIPOS>MOLECULE
[[[5-(6-amino-1,8-dihydropurine-6,8-diylium-7-id-9-yl)-3,4-dihydroxy-tetrahydrofuran-2-yl]methoxy-oxido-phosphoryl]oxy-oxido-phosphoryl] phosphate
   44    46     1     0     0
SMALL
USER_CHARGES

@<TRIPOS>ATOM
      1 PG          1.7297    4.0581   -7.3290 P.3       1 ATP        -1.1921
      2 O1G         1.7374    5.4474   -6.7000 O.co2     1 ATP         0.3195
      3 O2G         2.9563    3.7459   -8.1797 O.co2     1 ATP         0.3195
      4 O3G         0.4041    3.6713   -7.9764 O.co2     1 ATP         0.3195
      5 PB          0.8726    2.8387   -4.7537 P.3       1 ATP        -1.1062
      6 O1B         0.9298    4.0909   -3.9074 O.co2     1 ATP         0.3195
      7 O2B        -0.4477    2.2727   -5.2267 O.co2     1 ATP         0.3195
      8 O3B         1.8551    3.0311   -6.0447 O.3       1 ATP         0.4672
      9 PA          3.2351    1.6560   -3.4214 P.3       1 ATP        -1.1062
     10 O1A         3.3085    2.6225   -2.2594 O.co2     1 ATP         0.3195
     11 O2A         4.1915    1.7751   -4.5880 O.co2     1 ATP         0.3195
     12 O3A         1.7049    1.6571   -3.9944 O.3       1 ATP         0.4672
     13 O5'         3.2903    0.1346   -2.8241 O.3       1 ATP         0.1618
     14 C5'         2.2816   -0.2918   -1.9206 C.3       1 ATP         0.1504
     15 C4'         2.7248    0.0226   -0.4980 C.3       1 ATP         0.1111
     16 O4'         2.4697    1.4219   -0.2462 O.3       1 ATP        -0.1436
     17 C3'         1.9404   -0.7419    0.5596 C.3       1 ATP         0.1111
     18 O3'         2.7418   -0.8086    1.7389 O.3       1 ATP        -0.2728
     19 C2'         0.7477    0.1630    0.7858 C.3       1 ATP         0.1111
     20 O2'         0.1373   -0.0577    2.0407 O.3       1 ATP        -0.2728
     21 C1'         1.3733    1.5427    0.6747 C.3       1 ATP         0.2693
     22 N9          0.4520    2.5240    0.1767 N.pl3     1 ATP        -0.3222
     23 C8          0.5793    3.3338   -1.1209 C.ar      1 ATP         0.1640
     24 N7         -0.4807    4.1508   -1.2458 N.2       1 ATP        -0.1640
     25 C5         -1.1921    3.8572   -0.1126 C.ar      1 ATP         0.0820
     26 C6         -2.4855    4.5203    0.2163 C.ar      1 ATP         0.1640
     27 N6         -2.9873    5.4319   -0.6020 N.pl3     1 ATP        -0.4916
     28 N1         -3.0414    4.1119    1.3596 N.pl3     1 ATP        -0.4390
     29 C2         -2.4169    3.1071    2.1904 C.ar      1 ATP         0.5691
     30 N3         -1.2928    2.5191    1.9210 N.ar      1 ATP        -0.4283
     31 C4         -0.7202    2.9326    0.7534 C.ar      1 ATP         0.2226
     32 H5'1        1.3514    0.2330   -2.1577 H         1 ATP        -0.0393
     33 H5'2        2.1280   -1.3678   -2.0460 H         1 ATP        -0.0393
     34 H4'         3.8040   -0.1399   -0.4044 H         1 ATP        -0.0393
     35 H3'         1.6768   -1.7637    0.2732 H         1 ATP        -0.0393
     36 HO3'        2.2231   -1.2979    2.3952 H         1 ATP         0.2010
     37 H2'         0.0002   -0.0084   -0.0014 H         1 ATP        -0.0393
     38 HO2'       -0.1554   -0.9852    2.0577 H         1 ATP         0.2010
     39 H1'         1.7718    1.9211    1.6015 H         1 ATP        -0.0393
     40 H8          1.3565    3.3309   -1.8916 H         1 ATP         0.0000
     41 HN61       -2.4952    5.6785   -1.4487 H         1 ATP         0.2048
     42 HN62       -3.8637    5.8828   -0.3819 H         1 ATP         0.2048
     43 H2         -2.9911    2.8734    3.1000 H         1 ATP        -0.1292
     44 H44        -3.9253    4.5332    1.6302 H         1 ATP         0.2048
@<TRIPOS>BOND
     1    1    2 2
     2    1    3 1
     3    1    4 1
     4    1    8 1
     5    5    6 2
     6    5    7 1
     7    5    8 1
     8    5   12 1
     9    9   10 2
    10    9   11 1
    11    9   12 1
    12    9   13 1
    13   13   14 1
    14   14   15 1
    15   14   32 1
    16   14   33 1
    17   15   16 1
    18   15   17 1
    19   15   34 1
    20   16   21 1
    21   17   18 1
    22   17   19 1
    23   17   35 1
    24   18   36 1
    25   19   20 1
    26   19   21 1
    27   19   37 1
    28   20   38 1
    29   21   22 1
    30   21   39 1
    31   22   23 ar
    32   22   31 ar
    33   23   24 ar
    34   23   40 1
    35   24   25 ar
    36   25   26 ar
    37   25   31 ar
    38   26   27 1
    39   26   28 ar
    40   27   41 1
    41   27   42 1
    42   28   29 ar
    43   28   44 1
    44   29   30 ar
    45   29   43 1
    46   30   31 ar
@<TRIPOS>SUBSTRUCTURE
     1 ATP         1 GROUP 0 A     ****
@<TRIPOS>MOLECULE
[[[5-(6-amino-1,8-dihydropurine-6,8-diylium-7-id-9-yl)-3,4-dihydroxy-tetrahydrofuran-2-yl]methoxy-oxido-phosphoryl]oxy-oxido-phosphoryl] phosphate
   44    46     1     0     0
SMALL
USER_CHARGES

@<TRIPOS>ATOM
      1 PG          7.9605   -2.2861   -2.2478 P.3       1 ATP        -1.1921
      2 O1G         9.0259   -1.4605   -2.9613 O.co2     1 ATP         0.3195
      3 O2G         8.4990   -3.1865   -1.1410 O.co2     1 ATP         0.3195
      4 O3G         6.9672   -2.9687   -3.1823 O.co2     1 ATP         0.3195
      5 PB          6.1849    0.0921   -2.0343 P.3       1 ATP        -1.1062
      6 O1B         5.3909    0.7042   -0.9018 O.co2     1 ATP         0.3195
      7 O2B         7.0869    0.9381   -2.9050 O.co2     1 ATP         0.3195
      8 O3B         7.0470   -1.1674   -1.4516 O.3       1 ATP         0.4672
      9 PA          3.9556   -0.2056   -3.9568 P.3       1 ATP        -1.1062
     10 O1A         3.2059   -1.4054   -4.4936 O.co2     1 ATP         0.3195
     11 O2A         4.5101    0.8435   -4.8959 O.co2     1 ATP         0.3195
     12 O3A         5.1637   -0.7424   -2.9966 O.3       1 ATP         0.4672
     13 O5'         3.0213    0.5153   -2.8245 O.3       1 ATP         0.1618
     14 C5'         2.2816   -0.2918   -1.9206 C.3       1 ATP         0.1504
     15 C4'         2.7248    0.0226   -0.4980 C.3       1 ATP         0.1111
     16 O4'         2.4697    1.4219   -0.2462 O.3       1 ATP        -0.1436
     17 C3'         1.9404   -0.7419    0.5596 C.3       1 ATP         0.1111
     18 O3'         2.7418   -0.8086    1.7389 O.3       1 ATP        -0.2728
     19 C2'         0.7477    0.1630    0.7858 C.3       1 ATP         0.1111
     20 O2'         0.1373   -0.0577    2.0407 O.3       1 ATP        -0.2728
     21 C1'         1.3733    1.5427    0.6747 C.3       1 ATP         0.2693
     22 N9          0.4520    2.5240    0.1767 N.pl3     1 ATP        -0.3222
     23 C8          0.5793    3.3338   -1.1209 C.ar      1 ATP         0.1640
     24 N7         -0.4807    4.1508   -1.2458 N.2       1 ATP        -0.1640
     25 C5         -1.1921    3.8572   -0.1126 C.ar      1 ATP         0.0820
     26 C6         -2.4855    4.5203    0.2163 C.ar      1 ATP         0.1640
     27 N6         -2.9873    5.4319   -0.6020 N.pl3     1 ATP        -0.4916
     28 N1         -3.0414    4.1119    1.3596 N.pl3     1 ATP        -0.4390
     29 C2         -2.4169    3.1071    2.1904 C.ar      1 ATP         0.5691
     30 N3         -1.2928    2.5191    1.9210 N.ar      1 ATP        -0.4283
     31 C4         -0.7202    2.9326    0.7534 C.ar      1 ATP         0.2226
     32 H5'1        1.2163   -0.0770   -2.0471 H         1 ATP        -0.0393
     33 H5'2        2.4655   -1.3443   -2.1563 H         1 ATP        -0.0393
     34 H4'         3.8040   -0.1399   -0.4044 H         1 ATP        -0.0393
     35 H3'         1.6768   -1.7637    0.2732 H         1 ATP        -0.0393
     36 HO3'        3.5553   -1.2733    1.4913 H         1 ATP         0.2010
     37 H2'         0.0002   -0.0084   -0.0014 H         1 ATP        -0.0393
     38 HO2'        0.8091    0.1203    2.7213 H         1 ATP         0.2010
     39 H1'         1.7718    1.9211    1.6015 H         1 ATP        -0.0393
     40 H8          1.3565    3.3309   -1.8916 H         1 ATP         0.0000
     41 HN61       -2.4952    5.6785   -1.4487 H         1 ATP         0.2048
     42 HN62       -3.8637    5.8828   -0.3819 H         1 ATP         0.2048
     43 H2         -2.9911    2.8734    3.1000 H         1 ATP        -0.1292
     44 H44        -3.9253    4.5332    1.6302 H         1 ATP         0.2048
@<TRIPOS>BOND
     1    1    2 2
     2    1    3 1
     3    1    4 1
     4    1    8 1
     5    5    6 2
     6    5    7 1
     7    5    8 1
     8    5   12 1
     9    9   10 2
    10    9   11 1
    11    9   12 1
    12    9   13 1
    13   13   14 1
    14   14   15 1
    15   14   32 1
    16   14   33 1
    17   15   16 1
    18   15   17 1
    19   15   34 1
    20   16   21 1
    21   17   18 1
    22   17   19 1
    23   17   35 1
    24   18   36 1
    25   19   20 1
    26   19   21 1
    27   19   37 1
    28   20   38 1
    29   21   22 1
    30   21   39 1
    31   22   23 ar
    32   22   31 ar
    33   23   24 ar
    34   23   40 1
    35   24   25 ar
    36   25   26 ar
    37   25   31 ar
    38   26   27 1
    39   26   28 ar
    40   27   41 1
    41   27   42 1
    42   28   29 ar
    43   28   44 1
    44   29   30 ar
    45   29   43 1
    46   30   31 ar
@<TRIPOS>SUBSTRUCTURE
     1 ATP         1 GROUP 0 A     ****
@<TRIPOS>MOLECULE
[[[5-(6-amino-1,8-dihydropurine-6,8-diylium-7-id-9-yl)-3,4-dihydroxy-tetrahydrofuran-2-yl]methoxy-oxido-phosphoryl]oxy-oxido-phosphoryl] phosphate
   44    46     1     0     0
SMALL
USER_CHARGES

@<TRIPOS>ATOM
      1 PG          8.2341    1.9636   -2.2611 P.3       1 ATP        -1.1921
      2 O1G         9.1703    1.6141   -1.1091 O.co2     1 ATP         0.3195
      3 O2G         8.8701    1.8574   -3.6430 O.co2     1 ATP         0.3195
      4 O3G         7.4199    3.2346   -2.0427 O.co2     1 ATP         0.3195
      5 PB          6.0617    0.3198   -1.0642 P.3       1 ATP        -1.1062
      6 O1B         6.8508   -0.2458    0.0955 O.co2     1 ATP         0.3195
      7 O2B         5.0560    1.4307   -0.8596 O.co2     1 ATP         0.3195
      8 O3B         7.1030    0.7636   -2.2422 O.3       1 ATP         0.4672
      9 PA          4.4792   -0.9077   -3.2423 P.3       1 ATP        -1.1062
     10 O1A         3.8631   -2.2772   -3.4280 O.co2     1 ATP         0.3195
     11 O2A         5.3328   -0.2899   -4.3285 O.co2     1 ATP         0.3195
     12 O3A         5.3275   -0.9113   -1.8458 O.3       1 ATP         0.4672
     13 O5'         3.2903    0.1346   -2.8241 O.3       1 ATP         0.1618
     14 C5'         2.2816   -0.2918   -1.9206 C.3       1 ATP         0.1504
     15 C4'         2.7248    0.0226   -0.4980 C.3       1 ATP         0.1111
     16 O4'         2.4697    1.4219   -0.2462 O.3       1 ATP        -0.1436
     17 C3'         1.9404   -0.7419    0.5596 C.3       1 ATP         0.1111
     18 O3'         2.7418   -0.8086    1.7389 O.3       1 ATP        -0.2728
     19 C2'         0.7477    0.1630    0.7858 C.3       1 ATP         0.1111
     20 O2'         0.1373   -0.0577    2.0407 O.3       1 ATP        -0.2728
     21 C1'         1.3733    1.5427    0.6747 C.3       1 ATP         0.2693
     22 N9          0.4520    2.5240    0.1767 N.pl3     1 ATP        -0.3222
     23 C8         -0.3054    2.4845   -1.1576 C.ar      1 ATP         0.1640
     24 N7         -1.0755    3.5806   -1.2691 N.2       1 ATP        -0.1640
     25 C5         -0.8043    4.2306   -0.0942 C.ar      1 ATP         0.0820
     26 C6         -1.4324    5.5335    0.2646 C.ar      1 ATP         0.1640
     27 N6         -2.2885    6.1054   -0.5675 N.pl3     1 ATP        -0.4916
     28 N1         -1.0537    6.0229    1.4478 N.pl3     1 ATP        -0.4390
     29 C2         -0.1096    5.3242    2.2908 C.ar      1 ATP         0.5691
     30 N3          0.4468    4.1904    1.9960 N.ar      1 ATP        -0.4283
     31 C4          0.0631    3.6855    0.7877 C.ar      1 ATP         0.2226
     32 H5'1        1.3514    0.2330   -2.1577 H         1 ATP        -0.0393
     33 H5'2        2.1280   -1.3678   -2.0460 H         1 ATP        -0.0393
     34 H4'         3.8040   -0.1399   -0.4044 H         1 ATP        -0.0393
     35 H3'         1.6768   -1.7637    0.2732 H         1 ATP        -0.0393
     36 HO3'        3.5553   -1.2733    1.4913 H         1 ATP         0.2010
     37 H2'         0.0002   -0.0084   -0.0014 H         1 ATP        -0.0393
     38 HO2'       -0.6132    0.5577    2.1063 H         1 ATP         0.2010
     39 H1'         1.7718    1.9211    1.6015 H         1 ATP        -0.0393
     40 H8         -0.2991    1.7413   -1.9611 H         1 ATP         0.0000
     41 HN61       -2.5167    5.6603   -1.4447 H         1 ATP         0.2048
     42 HN62       -2.7159    6.9882   -0.3270 H         1 ATP         0.2048
     43 H2          0.1059    5.8491    3.2340 H         1 ATP        -0.1292
     44 H44        -1.4532    6.9099    1.7401 H         1 ATP         0.2048
@<TRIPOS>BOND
     1    1    2 2
     2    1    3 1
     3    1    4 1
     4    1    8 1
     5    5    6 2
     6    5    7 1
     7    5    8 1
     8    5   12 1
     9    9   10 2
    10    9   11 1
    11    9   12 1
    12    9   13 1
    13   13   14 1
    14   14   15 1
    15   14   32 1
    16   14   33 1
    17   15   16 1
    18   15   17 1
    19   15   34 1
    20   16   21 1
    21   17   18 1
    22   17   19 1
    23   17   35 1
    24   18   36 1
    25   19   20 1
    26   19   21 1
    27   19   37 1
    28   20   38 1
    29   21   22 1
    30   21   39 1
    31   22   23 ar
    32   22   31 ar
    33   23   24 ar
    34   23   40 1
    35   24   25 ar
    36   25   26 ar
    37   25   31 ar
    38   26   27 1
    39   26   28 ar
    40   27   41 1
    41   27   42 1
    42   28   29 ar
    43   28   44 1
    44   29   30 ar
    45   29   43 1
    46   30   31 ar
@<TRIPOS>SUBSTRUCTURE
     1 ATP         1 GROUP 0 A     ****
