@<TRIPOS>MOLECULE
[[[5-(6-amino-1,8-dihydropurine-6,8-diylium-7-id-9-yl)-3,4-dihydroxy-tetrahydrofuran-2-yl]methoxy-hydroxy-phosphoryl]oxy-hydroxy-phosphoryl] phosphate
   46    48     1     0     0
SMALL
USER_CHARGES

@<TRIPOS>ATOM
      1 PG         -2.2354    0.3919   -4.2072 P.3       1 ATP         1.3273
      2 O1G        -2.5949   -0.9796   -4.7691 O.co2     1 ATP        -0.8181
      3 O2G        -3.4009    1.3740   -4.1522 O.co2     1 ATP        -0.8181
      4 O3G        -1.3948    0.3468   -2.9355 O.co2     1 ATP        -0.8181
      5 PB          0.2117    0.5086   -5.8829 P.3       1 ATP         1.7707
      6 O1B         0.1777   -0.8430   -6.5332 O.2       1 ATP        -0.8474
      7 O2B         0.7105    1.7142   -6.8371 O.3       1 ATP        -0.8078
      8 O3B        -1.2149    1.0337   -5.3308 O.3       1 ATP        -0.7032
      9 PA          2.7601    0.3948   -4.4167 P.3       1 ATP         1.7252
     10 O1A         3.6056    1.3014   -5.2634 O.2       1 ATP        -0.8058
     11 O2A         2.9430   -1.1804   -4.7369 O.3       1 ATP        -0.7761
     12 O3A         1.1693    0.6252   -4.5874 O.3       1 ATP        -0.7114
     13 O5'         3.0213    0.5153   -2.8245 O.3       1 ATP        -0.5745
     14 C5'         2.2816   -0.2918   -1.9206 C.3       1 ATP         0.1981
     15 C4'         2.7248    0.0226   -0.4980 C.3       1 ATP         0.1050
     16 O4'         2.4697    1.4219   -0.2462 O.3       1 ATP        -0.3841
     17 C3'         1.9404   -0.7419    0.5596 C.3       1 ATP         0.0822
     18 O3'         2.7418   -0.8086    1.7389 O.3       1 ATP        -0.5784
     19 C2'         0.7477    0.1630    0.7858 C.3       1 ATP         0.0580
     20 O2'         0.1373   -0.0577    2.0407 O.3       1 ATP        -0.5710
     21 C1'         1.3733    1.5427    0.6747 C.3       1 ATP         0.4076
     22 N9          0.4520    2.5240    0.1767 N.pl3     1 ATP        -0.4359
     23 C8          0.1798    2.8712   -1.2933 C.ar      1 ATP         0.1755
     24 N7         -0.7494    3.8400   -1.3610 N.2       1 ATP        -0.2905
     25 C5         -1.0173    4.0603   -0.0358 C.ar      1 ATP        -0.1036
     26 C6         -2.0105    5.0717    0.4241 C.ar      1 ATP         0.4096
     27 N6         -2.6723    5.7982   -0.4628 N.pl3     1 ATP        -0.8318
     28 N1         -2.1445    5.1522    1.7502 N.pl3     1 ATP        -0.7165
     29 C2         -1.3755    4.3143    2.6427 C.ar      1 ATP         0.6120
     30 N3         -0.5075    3.4292    2.2616 N.ar      1 ATP        -0.5097
     31 C4         -0.3667    3.3425    0.9070 C.ar      1 ATP         0.2352
     32 HOB2        1.6097    1.6702   -7.2266 H         1 ATP         0.4987
     33 HOA2        3.8297   -1.5861   -4.6318 H         1 ATP         0.4629
     34 H5'1        1.2163   -0.0770   -2.0471 H         1 ATP         0.0490
     35 H5'2        2.4655   -1.3443   -2.1563 H         1 ATP         0.0490
     36 H4'         3.8040   -0.1399   -0.4044 H         1 ATP         0.1109
     37 H3'         1.6768   -1.7637    0.2732 H         1 ATP         0.0811
     38 HO3'        2.2231   -1.2979    2.3952 H         1 ATP         0.4115
     39 H2'         0.0002   -0.0084   -0.0014 H         1 ATP         0.0694
     40 HO2'       -0.6132    0.5577    2.1063 H         1 ATP         0.4114
     41 H1'         1.7718    1.9211    1.6015 H         1 ATP         0.1324
     42 H8          0.6089    2.4651   -2.2147 H         1 ATP         0.2428
     43 HN61       -2.5055    5.6680   -1.4503 H         1 ATP         0.4700
     44 HN62       -3.3462    6.4841   -0.1542 H         1 ATP         0.4700
     45 H2         -1.5932    4.4937    3.7066 H         1 ATP         0.0755
     46 H46        -2.8098    5.8270    2.1160 H         1 ATP         0.4610
@<TRIPOS>BOND
     1    1    2 2
     2    1    3 1
     3    1    4 1
     4    1    8 1
     5    5    6 2
     6    5    7 1
     7    5    8 1
     8    5   12 1
     9    7   32 1
    10    9   10 2
    11    9   11 1
    12    9   12 1
    13    9   13 1
    14   11   33 1
    15   13   14 1
    16   14   15 1
    17   14   34 1
    18   14   35 1
    19   15   16 1
    20   15   17 1
    21   15   36 1
    22   16   21 1
    23   17   18 1
    24   17   19 1
    25   17   37 1
    26   18   38 1
    27   19   20 1
    28   19   21 1
    29   19   39 1
    30   20   40 1
    31   21   22 1
    32   21   41 1
    33   22   23 ar
    34   22   31 ar
    35   23   24 ar
    36   23   42 1
    37   24   25 ar
    38   25   26 ar
    39   25   31 ar
    40   26   27 1
    41   26   28 ar
    42   27   43 1
    43   27   44 1
    44   28   29 ar
    45   28   46 1
    46   29   30 ar
    47   29   45 1
    48   30   31 ar
@<TRIPOS>SUBSTRUCTURE
     1 ATP         1 GROUP 0 A     ****
@<TRIPOS>MOLECULE
[[[5-(6-amino-1,8-dihydropurine-6,8-diylium-7-id-9-yl)-3,4-dihydroxy-tetrahydrofuran-2-yl]methoxy-hydroxy-phosphoryl]oxy-hydroxy-phosphoryl] phosphate
   46    48     1     0     0
SMALL
USER_CHARGES

@<TRIPOS>ATOM
      1 PG          2.0663    4.6024   -3.5904 P.3       1 ATP         1.3273
      2 O1G         2.8945    5.1060   -4.7679 O.co2     1 ATP        -0.8181
      3 O2G         2.7644    4.7105   -2.2388 O.co2     1 ATP        -0.8181
      4 O3G         0.6206    5.0882   -3.5885 O.co2     1 ATP        -0.8181
      5 PB          1.2983    2.1598   -5.0918 P.3       1 ATP         1.7707
      6 O1B        -0.1577    2.4228   -5.3400 O.2       1 ATP        -0.8474
      7 O2B         2.2787    2.5222   -6.3249 O.3       1 ATP        -0.8078
      8 O3B         1.9360    2.9807   -3.8527 O.3       1 ATP        -0.7032
      9 PA          3.0909   -0.0734   -4.4162 P.3       1 ATP         1.7252
     10 O1A         4.2286    0.4196   -5.2625 O.2       1 ATP        -0.8058
     11 O2A         2.7721   -1.6510   -4.5796 O.3       1 ATP        -0.7761
     12 O3A         1.6716    0.6272   -4.7443 O.3       1 ATP        -0.7114
     13 O5'         3.2903    0.1346   -2.8241 O.3       1 ATP        -0.5745
     14 C5'         2.2816   -0.2918   -1.9206 C.3       1 ATP         0.1981
     15 C4'         2.7248    0.0226   -0.4980 C.3       1 ATP         0.1050
     16 O4'         2.4697    1.4219   -0.2462 O.3       1 ATP        -0.3841
     17 C3'         1.9404   -0.7419    0.5596 C.3       1 ATP         0.0822
     18 O3'         2.7418   -0.8086    1.7389 O.3       1 ATP        -0.5784
     19 C2'         0.7477    0.1630    0.7858 C.3       1 ATP         0.0580
     20 O2'         0.1373   -0.0577    2.0407 O.3       1 ATP        -0.5710
     21 C1'         1.3733    1.5427    0.6747 C.3       1 ATP         0.4076
     22 N9          0.4520    2.5240    0.1767 N.pl3     1 ATP        -0.4359
     23 C8         -0.3054    2.4845   -1.1576 C.ar      1 ATP         0.1755
     24 N7         -1.0755    3.5806   -1.2691 N.2       1 ATP        -0.2905
     25 C5         -0.8043    4.2306   -0.0942 C.ar      1 ATP        -0.1036
     26 C6         -1.4324    5.5335    0.2646 C.ar      1 ATP         0.4096
     27 N6         -2.2885    6.1054   -0.5675 N.pl3     1 ATP        -0.8318
     28 N1         -1.0537    6.0229    1.4478 N.pl3     1 ATP        -0.7165
     29 C2         -0.1096    5.3242    2.2908 C.ar      1 ATP         0.6120
     30 N3          0.4468    4.1904    1.9960 N.ar      1 ATP        -0.5097
     31 C4          0.0631    3.6855    0.7877 C.ar      1 ATP         0.2352
     32 HOB2        2.3075    3.4463   -6.6525 H         1 ATP         0.4987
     33 HOA2        3.4731   -2.3018   -4.3625 H         1 ATP         0.4629
     34 H5'1        1.3514    0.2330   -2.1577 H         1 ATP         0.0490
     35 H5'2        2.1280   -1.3678   -2.0460 H         1 ATP         0.0490
     36 H4'         3.8040   -0.1399   -0.4044 H         1 ATP         0.1109
     37 H3'         1.6768   -1.7637    0.2732 H         1 ATP         0.0811
     38 HO3'        2.2231   -1.2979    2.3952 H         1 ATP         0.4115
     39 H2'         0.0002   -0.0084   -0.0014 H         1 ATP         0.0694
     40 HO2'       -0.6132    0.5577    2.1063 H         1 ATP         0.4114
     41 H1'         1.7718    1.9211    1.6015 H         1 ATP         0.1324
     42 H8         -0.2991    1.7413   -1.9611 H         1 ATP         0.2428
     43 HN61       -2.5167    5.6603   -1.4447 H         1 ATP         0.4700
     44 HN62       -2.7159    6.9882   -0.3270 H         1 ATP         0.4700
     45 H2          0.1059    5.8491    3.2340 H         1 ATP         0.0755
     46 H46        -1.4532    6.9099    1.7401 H         1 ATP         0.4610
@<TRIPOS>BOND
     1    1    2 2
     2    1    3 1
     3    1    4 1
     4    1    8 1
     5    5    6 2
     6    5    7 1
     7    5    8 1
     8    5   12 1
     9    7   32 1
    10    9   10 2
    11    9   11 1
    12    9   12 1
    13    9   13 1
    14   11   33 1
    15   13   14 1
    16   14   15 1
    17   14   34 1
    18   14   35 1
    19   15   16 1
    20   15   17 1
    21   15   36 1
    22   16   21 1
    23   17   18 1
    24   17   19 1
    25   17   37 1
    26   18   38 1
    27   19   20 1
    28   19   21 1
    29   19   39 1
    30   20   40 1
    31   21   22 1
    32   21   41 1
    33   22   23 ar
    34   22   31 ar
    35   23   24 ar
    36   23   42 1
    37   24   25 ar
    38   25   26 ar
    39   25   31 ar
    40   26   27 1
    41   26   28 ar
    42   27   43 1
    43   27   44 1
    44   28   29 ar
    45   28   46 1
    46   29   30 ar
    47   29   45 1
    48   30   31 ar
@<TRIPOS>SUBSTRUCTURE
     1 ATP         1 GROUP 0 A     ****
@<TRIPOS>MOLECULE
[[[5-(6-amino-1,8-dihydropurine-6,8-diylium-7-id-9-yl)-3,4-dihydroxy-tetrahydrofuran-2-yl]methoxy-hydroxy-phosphoryl]oxy-hydroxy-phosphoryl] phosphate
   46    48     1     0     0
SMALL
USER_CHARGES

@<TRIPOS>ATOM
      1 PG          1.4323    5.9809   -2.9233 P.3       1 ATP         1.3273
      2 O1G         1.8773    5.8780   -1.4681 O.co2     1 ATP        -0.8181
      3 O2G        -0.0438    6.3170   -3.1071 O.co2     1 ATP        -0.8181
      4 O3G         2.3733    6.7898   -3.8100 O.co2     1 ATP        -0.8181
      5 PB          2.8627    3.4712   -3.6057 P.3       1 ATP         1.7707
      6 O1B         3.9850    4.0017   -4.4481 O.2       1 ATP        -0.8474
      7 O2B         3.2438    3.1835   -2.0613 O.3       1 ATP        -0.8078
      8 O3B         1.5745    4.4432   -3.4987 O.3       1 ATP        -0.7032
      9 PA          2.8894    0.6160   -4.3158 P.3       1 ATP         1.7252
     10 O1A         4.0146    0.5899   -5.3092 O.2       1 ATP        -0.8058
     11 O2A         1.6263   -0.3134   -4.7133 O.3       1 ATP        -0.7761
     12 O3A         2.2250    2.0750   -4.1086 O.3       1 ATP        -0.7114
     13 O5'         3.2903    0.1346   -2.8241 O.3       1 ATP        -0.5745
     14 C5'         2.2816   -0.2918   -1.9206 C.3       1 ATP         0.1981
     15 C4'         2.7248    0.0226   -0.4980 C.3       1 ATP         0.1050
     16 O4'         2.4697    1.4219   -0.2462 O.3       1 ATP        -0.3841
     17 C3'         1.9404   -0.7419    0.5596 C.3       1 ATP         0.0822
     18 O3'         2.7418   -0.8086    1.7389 O.3       1 ATP        -0.5784
     19 C2'         0.7477    0.1630    0.7858 C.3       1 ATP         0.0580
     20 O2'         0.1373   -0.0577    2.0407 O.3       1 ATP        -0.5710
     21 C1'         1.3733    1.5427    0.6747 C.3       1 ATP         0.4076
     22 N9          0.4520    2.5240    0.1767 N.pl3     1 ATP        -0.4359
     23 C8         -0.3054    2.4845   -1.1576 C.ar      1 ATP         0.1755
     24 N7         -1.0755    3.5806   -1.2691 N.2       1 ATP        -0.2905
     25 C5         -0.8043    4.2306   -0.0942 C.ar      1 ATP        -0.1036
     26 C6         -1.4324    5.5335    0.2646 C.ar      1 ATP         0.4096
     27 N6         -2.2885    6.1054   -0.5675 N.pl3     1 ATP        -0.8318
     28 N1         -1.0537    6.0229    1.4478 N.pl3     1 ATP        -0.7165
     29 C2         -0.1096    5.3242    2.2908 C.ar      1 ATP         0.6120
     30 N3          0.4468    4.1904    1.9960 N.ar      1 ATP        -0.5097
     31 C4          0.0631    3.6855    0.7877 C.ar      1 ATP         0.2352
     32 HOB2        3.9524    2.5358   -1.8602 H         1 ATP         0.4987
     33 HOA2        1.7639   -1.2778   -4.8269 H         1 ATP         0.4629
     34 H5'1        1.3514    0.2330   -2.1577 H         1 ATP         0.0490
     35 H5'2        2.1280   -1.3678   -2.0460 H         1 ATP         0.0490
     36 H4'         3.8040   -0.1399   -0.4044 H         1 ATP         0.1109
     37 H3'         1.6768   -1.7637    0.2732 H         1 ATP         0.0811
     38 HO3'        2.2231   -1.2979    2.3952 H         1 ATP         0.4115
     39 H2'         0.0002   -0.0084   -0.0014 H         1 ATP         0.0694
     40 HO2'       -0.6132    0.5577    2.1063 H         1 ATP         0.4114
     41 H1'         1.7718    1.9211    1.6015 H         1 ATP         0.1324
     42 H8         -0.2991    1.7413   -1.9611 H         1 ATP         0.2428
     43 HN61       -2.5167    5.6603   -1.4447 H         1 ATP         0.4700
     44 HN62       -2.7159    6.9882   -0.3270 H         1 ATP         0.4700
     45 H2          0.1059    5.8491    3.2340 H         1 ATP         0.0755
     46 H46        -1.4532    6.9099    1.7401 H         1 ATP         0.4610
@<TRIPOS>BOND
     1    1    2 2
     2    1    3 1
     3    1    4 1
     4    1    8 1
     5    5    6 2
     6    5    7 1
     7    5    8 1
     8    5   12 1
     9    7   32 1
    10    9   10 2
    11    9   11 1
    12    9   12 1
    13    9   13 1
    14   11   33 1
    15   13   14 1
    16   14   15 1
    17   14   34 1
    18   14   35 1
    19   15   16 1
    20   15   17 1
    21   15   36 1
    22   16   21 1
    23   17   18 1
    24   17   19 1
    25   17   37 1
    26   18   38 1
    27   19   20 1
    28   19   21 1
    29   19   39 1
    30   20   40 1
    31   21   22 1
    32   21   41 1
    33   22   23 ar
    34   22   31 ar
    35   23   24 ar
    36   23   42 1
    37   24   25 ar
    38   25   26 ar
    39   25   31 ar
    40   26   27 1
    41   26   28 ar
    42   27   43 1
    43   27   44 1
    44   28   29 ar
    45   28   46 1
    46   29   30 ar
    47   29   45 1
    48   30   31 ar
@<TRIPOS>SUBSTRUCTURE
     1 ATP         1 GROUP 0 A     ****
@<TRIPOS>MOLECULE
[[[5-(6-amino-1,8-dihydropurine-6,8-diylium-7-id-9-yl)-3,4-dihydroxy-tetrahydrofuran-2-yl]methoxy-hydroxy-phosphoryl]oxy-hydroxy-phosphoryl] phosphate
   46    48     1     0     0
SMALL
USER_CHARGES

@<TRIPOS>ATOM
      1 PG         -0.5614   -1.9498   -7.3557 P.3       1 ATP         1.3273
      2 O1G        -2.0238   -1.7642   -6.9645 O.co2     1 ATP        -0.8181
      3 O2G        -0.0386   -3.3714   -7.1784 O.co2     1 ATP        -0.8181
      4 O3G        -0.1822   -1.3049   -8.6848 O.co2     1 ATP        -0.8181
      5 PB          0.2117    0.5086   -5.8829 P.3       1 ATP         1.7707
      6 O1B         0.5583    1.4253   -7.0188 O.2       1 ATP        -0.8474
      7 O2B        -1.2751    0.7007   -5.2782 O.3       1 ATP        -0.8078
      8 O3B         0.2702   -1.0679   -6.2392 O.3       1 ATP        -0.7032
      9 PA          2.7601    0.3948   -4.4167 P.3       1 ATP         1.7252
     10 O1A         3.6056    1.3014   -5.2634 O.2       1 ATP        -0.8058
     11 O2A         2.9430   -1.1804   -4.7369 O.3       1 ATP        -0.7761
     12 O3A         1.1693    0.6252   -4.5874 O.3       1 ATP        -0.7114
     13 O5'         3.0213    0.5153   -2.8245 O.3       1 ATP        -0.5745
     14 C5'         2.2816   -0.2918   -1.9206 C.3       1 ATP         0.1981
     15 C4'         2.7248    0.0226   -0.4980 C.3       1 ATP         0.1050
     16 O4'         2.4697    1.4219   -0.2462 O.3       1 ATP        -0.3841
     17 C3'         1.9404   -0.7419    0.5596 C.3       1 ATP         0.0822
     18 O3'         2.7418   -0.8086    1.7389 O.3       1 ATP        -0.5784
     19 C2'         0.7477    0.1630    0.7858 C.3       1 ATP         0.0580
     20 O2'         0.1373   -0.0577    2.0407 O.3       1 ATP        -0.5710
     21 C1'         1.3733    1.5427    0.6747 C.3       1 ATP         0.4076
     22 N9          0.4520    2.5240    0.1767 N.pl3     1 ATP        -0.4359
     23 C8          0.1798    2.8712   -1.2933 C.ar      1 ATP         0.1755
     24 N7         -0.7494    3.8400   -1.3610 N.2       1 ATP        -0.2905
     25 C5         -1.0173    4.0603   -0.0358 C.ar      1 ATP        -0.1036
     26 C6         -2.0105    5.0717    0.4241 C.ar      1 ATP         0.4096
     27 N6         -2.6723    5.7982   -0.4628 N.pl3     1 ATP        -0.8318
     28 N1         -2.1445    5.1522    1.7502 N.pl3     1 ATP        -0.7165
     29 C2         -1.3755    4.3143    2.6427 C.ar      1 ATP         0.6120
     30 N3         -0.5075    3.4292    2.2616 N.ar      1 ATP        -0.5097
     31 C4         -0.3667    3.3425    0.9070 C.ar      1 ATP         0.2352
     32 HOB2       -2.0478    0.5699   -5.8681 H         1 ATP         0.4987
     33 HOA2        3.8297   -1.5861   -4.6318 H         1 ATP         0.4629
     34 H5'1        1.2163   -0.0770   -2.0471 H         1 ATP         0.0490
     35 H5'2        2.4655   -1.3443   -2.1563 H         1 ATP         0.0490
     36 H4'         3.8040   -0.1399   -0.4044 H         1 ATP         0.1109
     37 H3'         1.6768   -1.7637    0.2732 H         1 ATP         0.0811
     38 HO3'        2.2231   -1.2979    2.3952 H         1 ATP         0.4115
     39 H2'         0.0002   -0.0084   -0.0014 H         1 ATP         0.0694
     40 HO2'       -0.6132    0.5577    2.1063 H         1 ATP         0.4114
     41 H1'         1.7718    1.9211    1.6015 H         1 ATP         0.1324
     42 H8          0.6089    2.4651   -2.2147 H         1 ATP         0.2428
     43 HN61       -2.5055    5.6680   -1.4503 H         1 ATP         0.4700
     44 HN62       -3.3462    6.4841   -0.1542 H         1 ATP         0.4700
     45 H2         -1.5932    4.4937    3.7066 H         1 ATP         0.0755
     46 H46        -2.8098    5.8270    2.1160 H         1 ATP         0.4610
@<TRIPOS>BOND
     1    1    2 2
     2    1    3 1
     3    1    4 1
     4    1    8 1
     5    5    6 2
     6    5    7 1
     7    5    8 1
     8    5   12 1
     9    7   32 1
    10    9   10 2
    11    9   11 1
    12    9   12 1
    13    9   13 1
    14   11   33 1
    15   13   14 1
    16   14   15 1
    17   14   34 1
    18   14   35 1
    19   15   16 1
    20   15   17 1
    21   15   36 1
    22   16   21 1
    23   17   18 1
    24   17   19 1
    25   17   37 1
    26   18   38 1
    27   19   20 1
    28   19   21 1
    29   19   39 1
    30   20   40 1
    31   21   22 1
    32   21   41 1
    33   22   23 ar
    34   22   31 ar
    35   23   24 ar
    36   23   42 1
    37   24   25 ar
    38   25   26 ar
    39   25   31 ar
    40   26   27 1
    41   26   28 ar
    42   27   43 1
    43   27   44 1
    44   28   29 ar
    45   28   46 1
    46   29   30 ar
    47   29   45 1
    48   30   31 ar
@<TRIPOS>SUBSTRUCTURE
     1 ATP         1 GROUP 0 A     ****
@<TRIPOS>MOLECULE
[[[5-(6-amino-1,8-dihydropurine-6,8-diylium-7-id-9-yl)-3,4-dihydroxy-tetrahydrofuran-2-yl]methoxy-hydroxy-phosphoryl]oxy-hydroxy-phosphoryl] phosphate
   46    48     1     0     0
SMALL
USER_CHARGES

@<TRIPOS>ATOM
      1 PG          1.1366    3.7651   -5.9770 P.3       1 ATP         1.3273
      2 O1G        -0.3039    4.2418   -5.8233 O.co2     1 ATP        -0.8181
      3 O2G         1.9270    4.4913   -7.0604 O.co2     1 ATP        -0.8181
      4 O3G         1.8861    3.6020   -4.6588 O.co2     1 ATP        -0.8181
      5 PB          0.2737    0.9262   -5.8975 P.3       1 ATP         1.7707
      6 O1B        -1.1969    1.0813   -5.6449 O.2       1 ATP        -0.8474
      7 O2B         0.6710   -0.2658   -6.9145 O.3       1 ATP        -0.8078
      8 O3B         0.9936    2.2234   -6.5415 O.3       1 ATP        -0.7032
      9 PA          2.7601    0.3948   -4.4167 P.3       1 ATP         1.7252
     10 O1A         3.6056    1.3014   -5.2634 O.2       1 ATP        -0.8058
     11 O2A         2.9430   -1.1804   -4.7369 O.3       1 ATP        -0.7761
     12 O3A         1.1693    0.6252   -4.5874 O.3       1 ATP        -0.7114
     13 O5'         3.0213    0.5153   -2.8245 O.3       1 ATP        -0.5745
     14 C5'         2.2816   -0.2918   -1.9206 C.3       1 ATP         0.1981
     15 C4'         2.7248    0.0226   -0.4980 C.3       1 ATP         0.1050
     16 O4'         2.4697    1.4219   -0.2462 O.3       1 ATP        -0.3841
     17 C3'         1.9404   -0.7419    0.5596 C.3       1 ATP         0.0822
     18 O3'         2.7418   -0.8086    1.7389 O.3       1 ATP        -0.5784
     19 C2'         0.7477    0.1630    0.7858 C.3       1 ATP         0.0580
     20 O2'         0.1373   -0.0577    2.0407 O.3       1 ATP        -0.5710
     21 C1'         1.3733    1.5427    0.6747 C.3       1 ATP         0.4076
     22 N9          0.4520    2.5240    0.1767 N.pl3     1 ATP        -0.4359
     23 C8          0.1798    2.8712   -1.2933 C.ar      1 ATP         0.1755
     24 N7         -0.7494    3.8400   -1.3610 N.2       1 ATP        -0.2905
     25 C5         -1.0173    4.0603   -0.0358 C.ar      1 ATP        -0.1036
     26 C6         -2.0105    5.0717    0.4241 C.ar      1 ATP         0.4096
     27 N6         -2.6723    5.7982   -0.4628 N.pl3     1 ATP        -0.8318
     28 N1         -2.1445    5.1522    1.7502 N.pl3     1 ATP        -0.7165
     29 C2         -1.3755    4.3143    2.6427 C.ar      1 ATP         0.6120
     30 N3         -0.5075    3.4292    2.2616 N.ar      1 ATP        -0.5097
     31 C4         -0.3667    3.3425    0.9070 C.ar      1 ATP         0.2352
     32 HOB2        0.4210   -1.1866   -6.6871 H         1 ATP         0.4987
     33 HOA2        3.8297   -1.5861   -4.6318 H         1 ATP         0.4629
     34 H5'1        1.2163   -0.0770   -2.0471 H         1 ATP         0.0490
     35 H5'2        2.4655   -1.3443   -2.1563 H         1 ATP         0.0490
     36 H4'         3.8040   -0.1399   -0.4044 H         1 ATP         0.1109
     37 H3'         1.6768   -1.7637    0.2732 H         1 ATP         0.0811
     38 HO3'        2.2231   -1.2979    2.3952 H         1 ATP         0.4115
     39 H2'         0.0002   -0.0084   -0.0014 H         1 ATP         0.0694
     40 HO2'       -0.6132    0.5577    2.1063 H         1 ATP         0.4114
     41 H1'         1.7718    1.9211    1.6015 H         1 ATP         0.1324
     42 H8          0.6089    2.4651   -2.2147 H         1 ATP         0.2428
     43 HN61       -2.5055    5.6680   -1.4503 H         1 ATP         0.4700
     44 HN62       -3.3462    6.4841   -0.1542 H         1 ATP         0.4700
     45 H2         -1.5932    4.4937    3.7066 H         1 ATP         0.0755
     46 H46        -2.8098    5.8270    2.1160 H         1 ATP         0.4610
@<TRIPOS>BOND
     1    1    2 2
     2    1    3 1
     3    1    4 1
     4    1    8 1
     5    5    6 2
     6    5    7 1
     7    5    8 1
     8    5   12 1
     9    7   32 1
    10    9   10 2
    11    9   11 1
    12    9   12 1
    13    9   13 1
    14   11   33 1
    15   13   14 1
    16   14   15 1
    17   14   34 1
    18   14   35 1
    19   15   16 1
    20   15   17 1
    21   15   36 1
    22   16   21 1
    23   17   18 1
    24   17   19 1
    25   17   37 1
    26   18   38 1
    27   19   20 1
    28   19   21 1
    29   19   39 1
    30   20   40 1
    31   21   22 1
    32   21   41 1
    33   22   23 ar
    34   22   31 ar
    35   23   24 ar
    36   23   42 1
    37   24   25 ar
    38   25   26 ar
    39   25   31 ar
    40   26   27 1
    41   26   28 ar
    42   27   43 1
    43   27   44 1
    44   28   29 ar
    45   28   46 1
    46   29   30 ar
    47   29   45 1
    48   30   31 ar
@<TRIPOS>SUBSTRUCTURE
     1 ATP         1 GROUP 0 A     ****
@<TRIPOS>MOLECULE
[[[5-(6-amino-1,8-dihydropurine-6,8-diylium-7-id-9-yl)-3,4-dihydroxy-tetrahydrofuran-2-yl]methoxy-hydroxy-phosphoryl]oxy-hydroxy-phosphoryl] phosphate
   46    48     1     0     0
SMALL
USER_CHARGES

@<TRIPOS>ATOM
      1 PG         -2.4245    1.4088   -3.3459 P.3       1 ATP         1.3273
      2 O1G        -2.9639    0.9221   -4.6869 O.co2     1 ATP        -0.8181
      3 O2G        -3.4638    2.0855   -2.4583 O.co2     1 ATP        -0.8181
      4 O3G        -1.5458    0.3956   -2.6196 O.co2     1 ATP        -0.8181
      5 PB         -0.0479    2.6041   -4.6624 P.3       1 ATP         1.7707
      6 O1B        -0.2655    2.1800   -6.0849 O.2       1 ATP        -0.8474
      7 O2B         0.5510    4.0940   -4.4770 O.3       1 ATP        -0.8078
      8 O3B        -1.3805    2.6195   -3.7460 O.3       1 ATP        -0.7032
      9 PA          2.3606    0.9705   -4.2295 P.3       1 ATP         1.7252
     10 O1A         3.2451    1.8209   -5.0944 O.2       1 ATP        -0.8058
     11 O2A         1.8849   -0.4138   -4.9183 O.3       1 ATP        -0.7761
     12 O3A         0.9666    1.6760   -3.8148 O.3       1 ATP        -0.7114
     13 O5'         3.0213    0.5153   -2.8245 O.3       1 ATP        -0.5745
     14 C5'         2.2816   -0.2918   -1.9206 C.3       1 ATP         0.1981
     15 C4'         2.7248    0.0226   -0.4980 C.3       1 ATP         0.1050
     16 O4'         2.4697    1.4219   -0.2462 O.3       1 ATP        -0.3841
     17 C3'         1.9404   -0.7419    0.5596 C.3       1 ATP         0.0822
     18 O3'         2.7418   -0.8086    1.7389 O.3       1 ATP        -0.5784
     19 C2'         0.7477    0.1630    0.7858 C.3       1 ATP         0.0580
     20 O2'         0.1373   -0.0577    2.0407 O.3       1 ATP        -0.5710
     21 C1'         1.3733    1.5427    0.6747 C.3       1 ATP         0.4076
     22 N9          0.4520    2.5240    0.1767 N.pl3     1 ATP        -0.4359
     23 C8          0.5793    3.3338   -1.1209 C.ar      1 ATP         0.1755
     24 N7         -0.4807    4.1508   -1.2458 N.2       1 ATP        -0.2905
     25 C5         -1.1921    3.8572   -0.1126 C.ar      1 ATP        -0.1036
     26 C6         -2.4855    4.5203    0.2163 C.ar      1 ATP         0.4096
     27 N6         -2.9873    5.4319   -0.6020 N.pl3     1 ATP        -0.8318
     28 N1         -3.0414    4.1119    1.3596 N.pl3     1 ATP        -0.7165
     29 C2         -2.4169    3.1071    2.1904 C.ar      1 ATP         0.6120
     30 N3         -1.2928    2.5191    1.9210 N.ar      1 ATP        -0.5097
     31 C4         -0.7202    2.9326    0.7534 C.ar      1 ATP         0.2352
     32 HOB2        1.4229    4.3075   -4.8724 H         1 ATP         0.4987
     33 HOA2        2.5650   -1.0623   -5.1991 H         1 ATP         0.4629
     34 H5'1        1.2163   -0.0770   -2.0471 H         1 ATP         0.0490
     35 H5'2        2.4655   -1.3443   -2.1563 H         1 ATP         0.0490
     36 H4'         3.8040   -0.1399   -0.4044 H         1 ATP         0.1109
     37 H3'         1.6768   -1.7637    0.2732 H         1 ATP         0.0811
     38 HO3'        2.2231   -1.2979    2.3952 H         1 ATP         0.4115
     39 H2'         0.0002   -0.0084   -0.0014 H         1 ATP         0.0694
     40 HO2'       -0.1554   -0.9852    2.0577 H         1 ATP         0.4114
     41 H1'         1.7718    1.9211    1.6015 H         1 ATP         0.1324
     42 H8          1.3565    3.3309   -1.8916 H         1 ATP         0.2428
     43 HN61       -2.4952    5.6785   -1.4487 H         1 ATP         0.4700
     44 HN62       -3.8637    5.8828   -0.3819 H         1 ATP         0.4700
     45 H2         -2.9911    2.8734    3.1000 H         1 ATP         0.0755
     46 H46        -3.9253    4.5332    1.6302 H         1 ATP         0.4610
@<TRIPOS>BOND
     1    1    2 2
     2    1    3 1
     3    1    4 1
     4    1    8 1
     5    5    6 2
     6    5    7 1
     7    5    8 1
     8    5   12 1
     9    7   32 1
    10    9   10 2
    11    9   11 1
    12    9   12 1
    13    9   13 1
    14   11   33 1
    15   13   14 1
    16   14   15 1
    17   14   34 1
    18   14   35 1
    19   15   16 1
    20   15   17 1
    21   15   36 1
    22   16   21 1
    23   17   18 1
    24   17   19 1
    25   17   37 1
    26   18   38 1
    27   19   20 1
    28   19   21 1
    29   19   39 1
    30   20   40 1
    31   21   22 1
    32   21   41 1
    33   22   23 ar
    34   22   31 ar
    35   23   24 ar
    36   23   42 1
    37   24   25 ar
    38   25   26 ar
    39   25   31 ar
    40   26   27 1
    41   26   28 ar
    42   27   43 1
    43   27   44 1
    44   28   29 ar
    45   28   46 1
    46   29   30 ar
    47   29   45 1
    48   30   31 ar
@<TRIPOS>SUBSTRUCTURE
     1 ATP         1 GROUP 0 A     ****
@<TRIPOS>MOLECULE
[[[5-(6-amino-1,8-dihydropurine-6,8-diylium-7-id-9-yl)-3,4-dihydroxy-tetrahydrofuran-2-yl]methoxy-hydroxy-phosphoryl]oxy-hydroxy-phosphoryl] phosphate
   46    48     1     0     0
SMALL
USER_CHARGES

@<TRIPOS>ATOM
      1 PG          4.4881    3.9535   -1.1694 P.3       1 ATP         1.3273
      2 O1G         5.7023    4.3273   -2.0132 O.co2     1 ATP        -0.8181
      3 O2G         4.7910    2.9971   -0.0207 O.co2     1 ATP        -0.8181
      4 O3G         3.6063    5.1363   -0.7827 O.co2     1 ATP        -0.8181
      5 PB          2.8627    3.4712   -3.6057 P.3       1 ATP         1.7707
      6 O1B         1.9065    4.6256   -3.5446 O.2       1 ATP        -0.8474
      7 O2B         4.1324    3.6858   -4.5828 O.3       1 ATP        -0.8078
      8 O3B         3.5409    3.0745   -2.1921 O.3       1 ATP        -0.7032
      9 PA          2.8894    0.6160   -4.3158 P.3       1 ATP         1.7252
     10 O1A         4.0146    0.5899   -5.3092 O.2       1 ATP        -0.8058
     11 O2A         1.6263   -0.3134   -4.7133 O.3       1 ATP        -0.7761
     12 O3A         2.2250    2.0750   -4.1086 O.3       1 ATP        -0.7114
     13 O5'         3.2903    0.1346   -2.8241 O.3       1 ATP        -0.5745
     14 C5'         2.2816   -0.2918   -1.9206 C.3       1 ATP         0.1981
     15 C4'         2.7248    0.0226   -0.4980 C.3       1 ATP         0.1050
     16 O4'         2.4697    1.4219   -0.2462 O.3       1 ATP        -0.3841
     17 C3'         1.9404   -0.7419    0.5596 C.3       1 ATP         0.0822
     18 O3'         2.7418   -0.8086    1.7389 O.3       1 ATP        -0.5784
     19 C2'         0.7477    0.1630    0.7858 C.3       1 ATP         0.0580
     20 O2'         0.1373   -0.0577    2.0407 O.3       1 ATP        -0.5710
     21 C1'         1.3733    1.5427    0.6747 C.3       1 ATP         0.4076
     22 N9          0.4520    2.5240    0.1767 N.pl3     1 ATP        -0.4359
     23 C8         -0.3054    2.4845   -1.1576 C.ar      1 ATP         0.1755
     24 N7         -1.0755    3.5806   -1.2691 N.2       1 ATP        -0.2905
     25 C5         -0.8043    4.2306   -0.0942 C.ar      1 ATP        -0.1036
     26 C6         -1.4324    5.5335    0.2646 C.ar      1 ATP         0.4096
     27 N6         -2.2885    6.1054   -0.5675 N.pl3     1 ATP        -0.8318
     28 N1         -1.0537    6.0229    1.4478 N.pl3     1 ATP        -0.7165
     29 C2         -0.1096    5.3242    2.2908 C.ar      1 ATP         0.6120
     30 N3          0.4468    4.1904    1.9960 N.ar      1 ATP        -0.5097
     31 C4          0.0631    3.6855    0.7877 C.ar      1 ATP         0.2352
     32 HOB2        4.7467    4.4298   -4.4062 H         1 ATP         0.4987
     33 HOA2        1.7639   -1.2778   -4.8269 H         1 ATP         0.4629
     34 H5'1        1.3514    0.2330   -2.1577 H         1 ATP         0.0490
     35 H5'2        2.1280   -1.3678   -2.0460 H         1 ATP         0.0490
     36 H4'         3.8040   -0.1399   -0.4044 H         1 ATP         0.1109
     37 H3'         1.6768   -1.7637    0.2732 H         1 ATP         0.0811
     38 HO3'        2.2231   -1.2979    2.3952 H         1 ATP         0.4115
     39 H2'         0.0002   -0.0084   -0.0014 H         1 ATP         0.0694
     40 HO2'       -0.6132    0.5577    2.1063 H         1 ATP         0.4114
     41 H1'         1.7718    1.9211    1.6015 H         1 ATP         0.1324
     42 H8         -0.2991    1.7413   -1.9611 H         1 ATP         0.2428
     43 HN61       -2.5167    5.6603   -1.4447 H         1 ATP         0.4700
     44 HN62       -2.7159    6.9882   -0.3270 H         1 ATP         0.4700
     45 H2          0.1059    5.8491    3.2340 H         1 ATP         0.0755
     46 H46        -1.4532    6.9099    1.7401 H         1 ATP         0.4610
@<TRIPOS>BOND
     1    1    2 2
     2    1    3 1
     3    1    4 1
     4    1    8 1
     5    5    6 2
     6    5    7 1
     7    5    8 1
     8    5   12 1
     9    7   32 1
    10    9   10 2
    11    9   11 1
    12    9   12 1
    13    9   13 1
    14   11   33 1
    15   13   14 1
    16   14   15 1
    17   14   34 1
    18   14   35 1
    19   15   16 1
    20   15   17 1
    21   15   36 1
    22   16   21 1
    23   17   18 1
    24   17   19 1
    25   17   37 1
    26   18   38 1
    27   19   20 1
    28   19   21 1
    29   19   39 1
    30   20   40 1
    31   21   22 1
    32   21   41 1
    33   22   23 ar
    34   22   31 ar
    35   23   24 ar
    36   23   42 1
    37   24   25 ar
    38   25   26 ar
    39   25   31 ar
    40   26   27 1
    41   26   28 ar
    42   27   43 1
    43   27   44 1
    44   28   29 ar
    45   28   46 1
    46   29   30 ar
    47   29   45 1
    48   30   31 ar
@<TRIPOS>SUBSTRUCTURE
     1 ATP         1 GROUP 0 A     ****
@<TRIPOS>MOLECULE
[[[5-(6-amino-1,8-dihydropurine-6,8-diylium-7-id-9-yl)-3,4-dihydroxy-tetrahydrofuran-2-yl]methoxy-hydroxy-phosphoryl]oxy-hydroxy-phosphoryl] phosphate
   46    48     1     0     0
SMALL
USER_CHARGES

@<TRIPOS>ATOM
      1 PG         -1.3532    1.3886   -6.1802 P.3       1 ATP         1.3273
      2 O1G        -0.9988    1.9694   -7.5452 O.co2     1 ATP        -0.8181
      3 O2G        -2.7397    1.7725   -5.6743 O.co2     1 ATP        -0.8181
      4 O3G        -1.0173   -0.0908   -6.0229 O.co2     1 ATP        -0.8181
      5 PB          1.2983    2.1598   -5.0918 P.3       1 ATP         1.7707
      6 O1B         1.9597    2.7168   -6.3178 O.2       1 ATP        -0.8474
      7 O2B         1.6213    2.9525   -3.7205 O.3       1 ATP        -0.8078
      8 O3B        -0.3181    2.1396   -5.1408 O.3       1 ATP        -0.7032
      9 PA          3.0909   -0.0734   -4.4162 P.3       1 ATP         1.7252
     10 O1A         4.2286    0.4196   -5.2625 O.2       1 ATP        -0.8058
     11 O2A         2.7721   -1.6510   -4.5796 O.3       1 ATP        -0.7761
     12 O3A         1.6716    0.6272   -4.7443 O.3       1 ATP        -0.7114
     13 O5'         3.2903    0.1346   -2.8241 O.3       1 ATP        -0.5745
     14 C5'         2.2816   -0.2918   -1.9206 C.3       1 ATP         0.1981
     15 C4'         2.7248    0.0226   -0.4980 C.3       1 ATP         0.1050
     16 O4'         2.4697    1.4219   -0.2462 O.3       1 ATP        -0.3841
     17 C3'         1.9404   -0.7419    0.5596 C.3       1 ATP         0.0822
     18 O3'         2.7418   -0.8086    1.7389 O.3       1 ATP        -0.5784
     19 C2'         0.7477    0.1630    0.7858 C.3       1 ATP         0.0580
     20 O2'         0.1373   -0.0577    2.0407 O.3       1 ATP        -0.5710
     21 C1'         1.3733    1.5427    0.6747 C.3       1 ATP         0.4076
     22 N9          0.4520    2.5240    0.1767 N.pl3     1 ATP        -0.4359
     23 C8         -0.3054    2.4845   -1.1576 C.ar      1 ATP         0.1755
     24 N7         -1.0755    3.5806   -1.2691 N.2       1 ATP        -0.2905
     25 C5         -0.8043    4.2306   -0.0942 C.ar      1 ATP        -0.1036
     26 C6         -1.4324    5.5335    0.2646 C.ar      1 ATP         0.4096
     27 N6         -2.2885    6.1054   -0.5675 N.pl3     1 ATP        -0.8318
     28 N1         -1.0537    6.0229    1.4478 N.pl3     1 ATP        -0.7165
     29 C2         -0.1096    5.3242    2.2908 C.ar      1 ATP         0.6120
     30 N3          0.4468    4.1904    1.9960 N.ar      1 ATP        -0.5097
     31 C4          0.0631    3.6855    0.7877 C.ar      1 ATP         0.2352
     32 HOB2        2.5522    3.0185   -3.4186 H         1 ATP         0.4987
     33 HOA2        3.4731   -2.3018   -4.3625 H         1 ATP         0.4629
     34 H5'1        1.3514    0.2330   -2.1577 H         1 ATP         0.0490
     35 H5'2        2.1280   -1.3678   -2.0460 H         1 ATP         0.0490
     36 H4'         3.8040   -0.1399   -0.4044 H         1 ATP         0.1109
     37 H3'         1.6768   -1.7637    0.2732 H         1 ATP         0.0811
     38 HO3'        2.2231   -1.2979    2.3952 H         1 ATP         0.4115
     39 H2'         0.0002   -0.0084   -0.0014 H         1 ATP         0.0694
     40 HO2'       -0.6132    0.5577    2.1063 H         1 ATP         0.4114
     41 H1'         1.7718    1.9211    1.6015 H         1 ATP         0.1324
     42 H8         -0.2991    1.7413   -1.9611 H         1 ATP         0.2428
     43 HN61       -2.5167    5.6603   -1.4447 H         1 ATP         0.4700
     44 HN62       -2.7159    6.9882   -0.3270 H         1 ATP         0.4700
     45 H2          0.1059    5.8491    3.2340 H         1 ATP         0.0755
     46 H46        -1.4532    6.9099    1.7401 H         1 ATP         0.4610
@<TRIPOS>BOND
     1    1    2 2
     2    1    3 1
     3    1    4 1
     4    1    8 1
     5    5    6 2
     6    5    7 1
     7    5    8 1
     8    5   12 1
     9    7   32 1
    10    9   10 2
    11    9   11 1
    12    9   12 1
    13    9   13 1
    14   11   33 1
    15   13   14 1
    16   14   15 1
    17   14   34 1
    18   14   35 1
    19   15   16 1
    20   15   17 1
    21   15   36 1
    22   16   21 1
    23   17   18 1
    24   17   19 1
    25   17   37 1
    26   18   38 1
    27   19   20 1
    28   19   21 1
    29   19   39 1
    30   20   40 1
    31   21   22 1
    32   21   41 1
    33   22   23 ar
    34   22   31 ar
    35   23   24 ar
    36   23   42 1
    37   24   25 ar
    38   25   26 ar
    39   25   31 ar
    40   26   27 1
    41   26   28 ar
    42   27   43 1
    43   27   44 1
    44   28   29 ar
    45   28   46 1
    46   29   30 ar
    47   29   45 1
    48   30   31 ar
@<TRIPOS>SUBSTRUCTURE
     1 ATP         1 GROUP 0 A     ****
@<TRIPOS>MOLECULE
[[[5-(6-amino-1,8-dihydropurine-6,8-diylium-7-id-9-yl)-3,4-dihydroxy-tetrahydrofuran-2-yl]methoxy-hydroxy-phosphoryl]oxy-hydroxy-phosphoryl] phosphate
   46    48     1     0     0
SMALL
USER_CHARGES

@<TRIPOS>ATOM
      1 PG          0.5978    1.7600   -8.5465 P.3       1 ATP         1.3273
      2 O1G         0.7446    0.3921   -9.2048 O.co2     1 ATP        -0.8181
      3 O2G         1.6458    2.7808   -8.9774 O.co2     1 ATP        -0.8181
      4 O3G        -0.8295    2.2973   -8.5307 O.co2     1 ATP        -0.8181
      5 PB          0.2117    0.5086   -5.8829 P.3       1 ATP         1.7707
      6 O1B        -1.2380    0.8048   -5.6352 O.2       1 ATP        -0.8474
      7 O2B         0.5193   -0.9721   -6.4539 O.3       1 ATP        -0.8078
      8 O3B         0.9307    1.4809   -6.9569 O.3       1 ATP        -0.7032
      9 PA          2.7601    0.3948   -4.4167 P.3       1 ATP         1.7252
     10 O1A         3.6056    1.3014   -5.2634 O.2       1 ATP        -0.8058
     11 O2A         2.9430   -1.1804   -4.7369 O.3       1 ATP        -0.7761
     12 O3A         1.1693    0.6252   -4.5874 O.3       1 ATP        -0.7114
     13 O5'         3.0213    0.5153   -2.8245 O.3       1 ATP        -0.5745
     14 C5'         2.2816   -0.2918   -1.9206 C.3       1 ATP         0.1981
     15 C4'         2.7248    0.0226   -0.4980 C.3       1 ATP         0.1050
     16 O4'         2.4697    1.4219   -0.2462 O.3       1 ATP        -0.3841
     17 C3'         1.9404   -0.7419    0.5596 C.3       1 ATP         0.0822
     18 O3'         2.7418   -0.8086    1.7389 O.3       1 ATP        -0.5784
     19 C2'         0.7477    0.1630    0.7858 C.3       1 ATP         0.0580
     20 O2'         0.1373   -0.0577    2.0407 O.3       1 ATP        -0.5710
     21 C1'         1.3733    1.5427    0.6747 C.3       1 ATP         0.4076
     22 N9          0.4520    2.5240    0.1767 N.pl3     1 ATP        -0.4359
     23 C8          0.1798    2.8712   -1.2933 C.ar      1 ATP         0.1755
     24 N7         -0.7494    3.8400   -1.3610 N.2       1 ATP        -0.2905
     25 C5         -1.0173    4.0603   -0.0358 C.ar      1 ATP        -0.1036
     26 C6         -2.0105    5.0717    0.4241 C.ar      1 ATP         0.4096
     27 N6         -2.6723    5.7982   -0.4628 N.pl3     1 ATP        -0.8318
     28 N1         -2.1445    5.1522    1.7502 N.pl3     1 ATP        -0.7165
     29 C2         -1.3755    4.3143    2.6427 C.ar      1 ATP         0.6120
     30 N3         -0.5075    3.4292    2.2616 N.ar      1 ATP        -0.5097
     31 C4         -0.3667    3.3425    0.9070 C.ar      1 ATP         0.2352
     32 HOB2        0.2568   -1.7511   -5.9186 H         1 ATP         0.4987
     33 HOA2        3.8297   -1.5861   -4.6318 H         1 ATP         0.4629
     34 H5'1        1.2163   -0.0770   -2.0471 H         1 ATP         0.0490
     35 H5'2        2.4655   -1.3443   -2.1563 H         1 ATP         0.0490
     36 H4'         3.8040   -0.1399   -0.4044 H         1 ATP         0.1109
     37 H3'         1.6768   -1.7637    0.2732 H         1 ATP         0.0811
     38 HO3'        2.2231   -1.2979    2.3952 H         1 ATP         0.4115
     39 H2'         0.0002   -0.0084   -0.0014 H         1 ATP         0.0694
     40 HO2'       -0.6132    0.5577    2.1063 H         1 ATP         0.4114
     41 H1'         1.7718    1.9211    1.6015 H         1 ATP         0.1324
     42 H8          0.6089    2.4651   -2.2147 H         1 ATP         0.2428
     43 HN61       -2.5055    5.6680   -1.4503 H         1 ATP         0.4700
     44 HN62       -3.3462    6.4841   -0.1542 H         1 ATP         0.4700
     45 H2         -1.5932    4.4937    3.7066 H         1 ATP         0.0755
     46 H46        -2.8098    5.8270    2.1160 H         1 ATP         0.4610
@<TRIPOS>BOND
     1    1    2 2
     2    1    3 1
     3    1    4 1
     4    1    8 1
     5    5    6 2
     6    5    7 1
     7    5    8 1
     8    5   12 1
     9    7   32 1
    10    9   10 2
    11    9   11 1
    12    9   12 1
    13    9   13 1
    14   11   33 1
    15   13   14 1
    16   14   15 1
    17   14   34 1
    18   14   35 1
    19   15   16 1
    20   15   17 1
    21   15   36 1
    22   16   21 1
    23   17   18 1
    24   17   19 1
    25   17   37 1
    26   18   38 1
    27   19   20 1
    28   19   21 1
    29   19   39 1
    30   20   40 1
    31   21   22 1
    32   21   41 1
    33   22   23 ar
    34   22   31 ar
    35   23   24 ar
    36   23   42 1
    37   24   25 ar
    38   25   26 ar
    39   25   31 ar
    40   26   27 1
    41   26   28 ar
    42   27   43 1
    43   27   44 1
    44   28   29 ar
    45   28   46 1
    46   29   30 ar
    47   29   45 1
    48   30   31 ar
@<TRIPOS>SUBSTRUCTURE
     1 ATP         1 GROUP 0 A     ****
@<TRIPOS>MOLECULE
[[[5-(6-amino-1,8-dihydropurine-6,8-diylium-7-id-9-yl)-3,4-dihydroxy-tetrahydrofuran-2-yl]methoxy-hydroxy-phosphoryl]oxy-hydroxy-phosphoryl] phosphate
   46    48     1     0     0
SMALL
USER_CHARGES

@<TRIPOS>ATOM
      1 PG         -1.6128    2.3144   -6.6562 P.3       1 ATP         1.3273
      2 O1G        -0.8766    3.0912   -7.7428 O.co2     1 ATP        -0.8181
      3 O2G        -2.4150    3.1849   -5.6948 O.co2     1 ATP        -0.8181
      4 O3G        -2.3630    1.0871   -7.1633 O.co2     1 ATP        -0.8181
      5 PB          0.7994    0.6757   -6.1030 P.3       1 ATP         1.7707
      6 O1B         0.3658   -0.6593   -6.6324 O.2       1 ATP        -0.8474
      7 O2B         1.7121    1.5482   -7.1124 O.3       1 ATP        -0.8078
      8 O3B        -0.4086    1.6825   -5.7254 O.3       1 ATP        -0.7032
      9 PA          3.0909   -0.0734   -4.4162 P.3       1 ATP         1.7252
     10 O1A         4.2286    0.4196   -5.2625 O.2       1 ATP        -0.8058
     11 O2A         2.7721   -1.6510   -4.5796 O.3       1 ATP        -0.7761
     12 O3A         1.6716    0.6272   -4.7443 O.3       1 ATP        -0.7114
     13 O5'         3.2903    0.1346   -2.8241 O.3       1 ATP        -0.5745
     14 C5'         2.2816   -0.2918   -1.9206 C.3       1 ATP         0.1981
     15 C4'         2.7248    0.0226   -0.4980 C.3       1 ATP         0.1050
     16 O4'         2.4697    1.4219   -0.2462 O.3       1 ATP        -0.3841
     17 C3'         1.9404   -0.7419    0.5596 C.3       1 ATP         0.0822
     18 O3'         2.7418   -0.8086    1.7389 O.3       1 ATP        -0.5784
     19 C2'         0.7477    0.1630    0.7858 C.3       1 ATP         0.0580
     20 O2'         0.1373   -0.0577    2.0407 O.3       1 ATP        -0.5710
     21 C1'         1.3733    1.5427    0.6747 C.3       1 ATP         0.4076
     22 N9          0.4520    2.5240    0.1767 N.pl3     1 ATP        -0.4359
     23 C8          0.1798    2.8712   -1.2933 C.ar      1 ATP         0.1755
     24 N7         -0.7494    3.8400   -1.3610 N.2       1 ATP        -0.2905
     25 C5         -1.0173    4.0603   -0.0358 C.ar      1 ATP        -0.1036
     26 C6         -2.0105    5.0717    0.4241 C.ar      1 ATP         0.4096
     27 N6         -2.6723    5.7982   -0.4628 N.pl3     1 ATP        -0.8318
     28 N1         -2.1445    5.1522    1.7502 N.pl3     1 ATP        -0.7165
     29 C2         -1.3755    4.3143    2.6427 C.ar      1 ATP         0.6120
     30 N3         -0.5075    3.4292    2.2616 N.ar      1 ATP        -0.5097
     31 C4         -0.3667    3.3425    0.9070 C.ar      1 ATP         0.2352
     32 HOB2        2.5685    1.1793   -7.4168 H         1 ATP         0.4987
     33 HOA2        3.4731   -2.3018   -4.3625 H         1 ATP         0.4629
     34 H5'1        1.3514    0.2330   -2.1577 H         1 ATP         0.0490
     35 H5'2        2.1280   -1.3678   -2.0460 H         1 ATP         0.0490
     36 H4'         3.8040   -0.1399   -0.4044 H         1 ATP         0.1109
     37 H3'         1.6768   -1.7637    0.2732 H         1 ATP         0.0811
     38 HO3'        2.2231   -1.2979    2.3952 H         1 ATP         0.4115
     39 H2'         0.0002   -0.0084   -0.0014 H         1 ATP         0.0694
     40 HO2'       -0.6132    0.5577    2.1063 H         1 ATP         0.4114
     41 H1'         1.7718    1.9211    1.6015 H         1 ATP         0.1324
     42 H8          0.6089    2.4651   -2.2147 H         1 ATP         0.2428
     43 HN61       -2.5055    5.6680   -1.4503 H         1 ATP         0.4700
     44 HN62       -3.3462    6.4841   -0.1542 H         1 ATP         0.4700
     45 H2         -1.5932    4.4937    3.7066 H         1 ATP         0.0755
     46 H46        -2.8098    5.8270    2.1160 H         1 ATP         0.4610
@<TRIPOS>BOND
     1    1    2 2
     2    1    3 1
     3    1    4 1
     4    1    8 1
     5    5    6 2
     6    5    7 1
     7    5    8 1
     8    5   12 1
     9    7   32 1
    10    9   10 2
    11    9   11 1
    12    9   12 1
    13    9   13 1
    14   11   33 1
    15   13   14 1
    16   14   15 1
    17   14   34 1
    18   14   35 1
    19   15   16 1
    20   15   17 1
    21   15   36 1
    22   16   21 1
    23   17   18 1
    24   17   19 1
    25   17   37 1
    26   18   38 1
    27   19   20 1
    28   19   21 1
    29   19   39 1
    30   20   40 1
    31   21   22 1
    32   21   41 1
    33   22   23 ar
    34   22   31 ar
    35   23   24 ar
    36   23   42 1
    37   24   25 ar
    38   25   26 ar
    39   25   31 ar
    40   26   27 1
    41   26   28 ar
    42   27   43 1
    43   27   44 1
    44   28   29 ar
    45   28   46 1
    46   29   30 ar
    47   29   45 1
    48   30   31 ar
@<TRIPOS>SUBSTRUCTURE
     1 ATP         1 GROUP 0 A     ****
@<TRIPOS>MOLECULE
[[[5-(6-amino-1,8-dihydropurine-6,8-diylium-7-id-9-yl)-3,4-dihydroxy-tetrahydrofuran-2-yl]methoxy-hydroxy-phosphoryl]oxy-hydroxy-phosphoryl] phosphate
   46    48     1     0     0
SMALL
USER_CHARGES

@<TRIPOS>ATOM
      1 PG          1.4836    1.0405   -6.7877 P.3       1 ATP         1.3273
      2 O1G         0.0078    1.4209   -6.8464 O.co2     1 ATP        -0.8181
      3 O2G         2.3011    1.5055   -7.9882 O.co2     1 ATP        -0.8181
      4 O3G         2.1453    1.3060   -5.4394 O.co2     1 ATP        -0.8181
      5 PB          0.8033   -1.7297   -5.9669 P.3       1 ATP         1.7707
      6 O1B        -0.6887   -1.6330   -5.8430 O.2       1 ATP        -0.8474
      7 O2B         1.3492   -3.1173   -6.5910 O.3       1 ATP        -0.8078
      8 O3B         1.4819   -0.6031   -6.9081 O.3       1 ATP        -0.7032
      9 PA          1.5773   -2.4670   -3.2257 P.3       1 ATP         1.7252
     10 O1A         1.9390   -3.9109   -3.4206 O.2       1 ATP        -0.8058
     11 O2A         0.0767   -2.2235   -2.6724 O.3       1 ATP        -0.7761
     12 O3A         1.6199   -1.5866   -4.5806 O.3       1 ATP        -0.7114
     13 O5'         2.5245   -1.6648   -2.1878 O.3       1 ATP        -0.5745
     14 C5'         2.2816   -0.2918   -1.9206 C.3       1 ATP         0.1981
     15 C4'         2.7248    0.0226   -0.4980 C.3       1 ATP         0.1050
     16 O4'         2.4697    1.4219   -0.2462 O.3       1 ATP        -0.3841
     17 C3'         1.9404   -0.7419    0.5596 C.3       1 ATP         0.0822
     18 O3'         2.7418   -0.8086    1.7389 O.3       1 ATP        -0.5784
     19 C2'         0.7477    0.1630    0.7858 C.3       1 ATP         0.0580
     20 O2'         0.1373   -0.0577    2.0407 O.3       1 ATP        -0.5710
     21 C1'         1.3733    1.5427    0.6747 C.3       1 ATP         0.4076
     22 N9          0.4520    2.5240    0.1767 N.pl3     1 ATP        -0.4359
     23 C8          0.1798    2.8712   -1.2933 C.ar      1 ATP         0.1755
     24 N7         -0.7494    3.8400   -1.3610 N.2       1 ATP        -0.2905
     25 C5         -1.0173    4.0603   -0.0358 C.ar      1 ATP        -0.1036
     26 C6         -2.0105    5.0717    0.4241 C.ar      1 ATP         0.4096
     27 N6         -2.6723    5.7982   -0.4628 N.pl3     1 ATP        -0.8318
     28 N1         -2.1445    5.1522    1.7502 N.pl3     1 ATP        -0.7165
     29 C2         -1.3755    4.3143    2.6427 C.ar      1 ATP         0.6120
     30 N3         -0.5075    3.4292    2.2616 N.ar      1 ATP        -0.5097
     31 C4         -0.3667    3.3425    0.9070 C.ar      1 ATP         0.2352
     32 HOB2        1.1438   -3.9583   -6.1298 H         1 ATP         0.4987
     33 HOA2       -0.1778   -2.6071   -1.8063 H         1 ATP         0.4629
     34 H5'1        2.8432    0.3119   -2.6398 H         1 ATP         0.0490
     35 H5'2        1.2128   -0.0927   -2.0428 H         1 ATP         0.0490
     36 H4'         3.8040   -0.1399   -0.4044 H         1 ATP         0.1109
     37 H3'         1.6768   -1.7637    0.2732 H         1 ATP         0.0811
     38 HO3'        2.2231   -1.2979    2.3952 H         1 ATP         0.4115
     39 H2'         0.0002   -0.0084   -0.0014 H         1 ATP         0.0694
     40 HO2'       -0.6132    0.5577    2.1063 H         1 ATP         0.4114
     41 H1'         1.7718    1.9211    1.6015 H         1 ATP         0.1324
     42 H8          0.6089    2.4651   -2.2147 H         1 ATP         0.2428
     43 HN61       -2.5055    5.6680   -1.4503 H         1 ATP         0.4700
     44 HN62       -3.3462    6.4841   -0.1542 H         1 ATP         0.4700
     45 H2         -1.5932    4.4937    3.7066 H         1 ATP         0.0755
     46 H46        -2.8098    5.8270    2.1160 H         1 ATP         0.4610
@<TRIPOS>BOND
     1    1    2 2
     2    1    3 1
     3    1    4 1
     4    1    8 1
     5    5    6 2
     6    5    7 1
     7    5    8 1
     8    5   12 1
     9    7   32 1
    10    9   10 2
    11    9   11 1
    12    9   12 1
    13    9   13 1
    14   11   33 1
    15   13   14 1
    16   14   15 1
    17   14   34 1
    18   14   35 1
    19   15   16 1
    20   15   17 1
    21   15   36 1
    22   16   21 1
    23   17   18 1
    24   17   19 1
    25   17   37 1
    26   18   38 1
    27   19   20 1
    28   19   21 1
    29   19   39 1
    30   20   40 1
    31   21   22 1
    32   21   41 1
    33   22   23 ar
    34   22   31 ar
    35   23   24 ar
    36   23   42 1
    37   24   25 ar
    38   25   26 ar
    39   25   31 ar
    40   26   27 1
    41   26   28 ar
    42   27   43 1
    43   27   44 1
    44   28   29 ar
    45   28   46 1
    46   29   30 ar
    47   29   45 1
    48   30   31 ar
@<TRIPOS>SUBSTRUCTURE
     1 ATP         1 GROUP 0 A     ****
@<TRIPOS>MOLECULE
[[[5-(6-amino-1,8-dihydropurine-6,8-diylium-7-id-9-yl)-3,4-dihydroxy-tetrahydrofuran-2-yl]methoxy-hydroxy-phosphoryl]oxy-hydroxy-phosphoryl] phosphate
   46    48     1     0     0
SMALL
USER_CHARGES

@<TRIPOS>ATOM
      1 PG          4.8198    5.1915   -5.0271 P.3       1 ATP         1.3273
      2 O1G         3.7999    6.3203   -5.1343 O.co2     1 ATP        -0.8181
      3 O2G         5.5792    4.9054   -6.3183 O.co2     1 ATP        -0.8181
      4 O3G         5.7019    5.2605   -3.7847 O.co2     1 ATP        -0.8181
      5 PB          2.8627    3.4712   -3.6057 P.3       1 ATP         1.7707
      6 O1B         3.4539    3.4443   -2.2271 O.2       1 ATP        -0.8474
      7 O2B         1.6650    4.5364   -3.8155 O.3       1 ATP        -0.8078
      8 O3B         3.9049    3.8423   -4.7854 O.3       1 ATP        -0.7032
      9 PA          2.8894    0.6160   -4.3158 P.3       1 ATP         1.7252
     10 O1A         4.0146    0.5899   -5.3092 O.2       1 ATP        -0.8058
     11 O2A         1.6263   -0.3134   -4.7133 O.3       1 ATP        -0.7761
     12 O3A         2.2250    2.0750   -4.1086 O.3       1 ATP        -0.7114
     13 O5'         3.2903    0.1346   -2.8241 O.3       1 ATP        -0.5745
     14 C5'         2.2816   -0.2918   -1.9206 C.3       1 ATP         0.1981
     15 C4'         2.7248    0.0226   -0.4980 C.3       1 ATP         0.1050
     16 O4'         2.4697    1.4219   -0.2462 O.3       1 ATP        -0.3841
     17 C3'         1.9404   -0.7419    0.5596 C.3       1 ATP         0.0822
     18 O3'         2.7418   -0.8086    1.7389 O.3       1 ATP        -0.5784
     19 C2'         0.7477    0.1630    0.7858 C.3       1 ATP         0.0580
     20 O2'         0.1373   -0.0577    2.0407 O.3       1 ATP        -0.5710
     21 C1'         1.3733    1.5427    0.6747 C.3       1 ATP         0.4076
     22 N9          0.4520    2.5240    0.1767 N.pl3     1 ATP        -0.4359
     23 C8         -0.3054    2.4845   -1.1576 C.ar      1 ATP         0.1755
     24 N7         -1.0755    3.5806   -1.2691 N.2       1 ATP        -0.2905
     25 C5         -0.8043    4.2306   -0.0942 C.ar      1 ATP        -0.1036
     26 C6         -1.4324    5.5335    0.2646 C.ar      1 ATP         0.4096
     27 N6         -2.2885    6.1054   -0.5675 N.pl3     1 ATP        -0.8318
     28 N1         -1.0537    6.0229    1.4478 N.pl3     1 ATP        -0.7165
     29 C2         -0.1096    5.3242    2.2908 C.ar      1 ATP         0.6120
     30 N3          0.4468    4.1904    1.9960 N.ar      1 ATP        -0.5097
     31 C4          0.0631    3.6855    0.7877 C.ar      1 ATP         0.2352
     32 HOB2        0.8567    4.4559   -3.2657 H         1 ATP         0.4987
     33 HOA2        1.7639   -1.2778   -4.8269 H         1 ATP         0.4629
     34 H5'1        1.3514    0.2330   -2.1577 H         1 ATP         0.0490
     35 H5'2        2.1280   -1.3678   -2.0460 H         1 ATP         0.0490
     36 H4'         3.8040   -0.1399   -0.4044 H         1 ATP         0.1109
     37 H3'         1.6768   -1.7637    0.2732 H         1 ATP         0.0811
     38 HO3'        2.2231   -1.2979    2.3952 H         1 ATP         0.4115
     39 H2'         0.0002   -0.0084   -0.0014 H         1 ATP         0.0694
     40 HO2'       -0.6132    0.5577    2.1063 H         1 ATP         0.4114
     41 H1'         1.7718    1.9211    1.6015 H         1 ATP         0.1324
     42 H8         -0.2991    1.7413   -1.9611 H         1 ATP         0.2428
     43 HN61       -2.5167    5.6603   -1.4447 H         1 ATP         0.4700
     44 HN62       -2.7159    6.9882   -0.3270 H         1 ATP         0.4700
     45 H2          0.1059    5.8491    3.2340 H         1 ATP         0.0755
     46 H46        -1.4532    6.9099    1.7401 H         1 ATP         0.4610
@<TRIPOS>BOND
     1    1    2 2
     2    1    3 1
     3    1    4 1
     4    1    8 1
     5    5    6 2
     6    5    7 1
     7    5    8 1
     8    5   12 1
     9    7   32 1
    10    9   10 2
    11    9   11 1
    12    9   12 1
    13    9   13 1
    14   11   33 1
    15   13   14 1
    16   14   15 1
    17   14   34 1
    18   14   35 1
    19   15   16 1
    20   15   17 1
    21   15   36 1
    22   16   21 1
    23   17   18 1
    24   17   19 1
    25   17   37 1
    26   18   38 1
    27   19   20 1
    28   19   21 1
    29   19   39 1
    30   20   40 1
    31   21   22 1
    32   21   41 1
    33   22   23 ar
    34   22   31 ar
    35   23   24 ar
    36   23   42 1
    37   24   25 ar
    38   25   26 ar
    39   25   31 ar
    40   26   27 1
    41   26   28 ar
    42   27   43 1
    43   27   44 1
    44   28   29 ar
    45   28   46 1
    46   29   30 ar
    47   29   45 1
    48   30   31 ar
@<TRIPOS>SUBSTRUCTURE
     1 ATP         1 GROUP 0 A     ****
@<TRIPOS>MOLECULE
[[[5-(6-amino-1,8-dihydropurine-6,8-diylium-7-id-9-yl)-3,4-dihydroxy-tetrahydrofuran-2-yl]methoxy-hydroxy-phosphoryl]oxy-hydroxy-phosphoryl] phosphate
   46    48     1     0     0
SMALL
USER_CHARGES

@<TRIPOS>ATOM
      1 PG          6.6028   -0.4542   -2.9996 P.3       1 ATP         1.3273
      2 O1G         7.3066   -1.7798   -3.2707 O.co2     1 ATP        -0.8181
      3 O2G         6.4550   -0.1118   -1.5208 O.co2     1 ATP        -0.8181
      4 O3G         7.0928    0.7030   -3.8638 O.co2     1 ATP        -0.8181
      5 PB          4.4841   -1.1009   -4.9751 P.3       1 ATP         1.7707
      6 O1B         4.8009   -0.1205   -6.0655 O.2       1 ATP        -0.8474
      7 O2B         5.0579   -2.5938   -5.2098 O.3       1 ATP        -0.8078
      8 O3B         5.0580   -0.7043   -3.5161 O.3       1 ATP        -0.7032
      9 PA          2.1491   -2.2865   -3.6337 P.3       1 ATP         1.7252
     10 O1A         2.4550   -3.7479   -3.7889 O.2       1 ATP        -0.8058
     11 O2A         0.5912   -1.9045   -3.8443 O.3       1 ATP        -0.7761
     12 O3A         2.9105   -1.3357   -4.6964 O.3       1 ATP        -0.7114
     13 O5'         2.5245   -1.6648   -2.1878 O.3       1 ATP        -0.5745
     14 C5'         2.2816   -0.2918   -1.9206 C.3       1 ATP         0.1981
     15 C4'         2.7248    0.0226   -0.4980 C.3       1 ATP         0.1050
     16 O4'         2.4697    1.4219   -0.2462 O.3       1 ATP        -0.3841
     17 C3'         1.9404   -0.7419    0.5596 C.3       1 ATP         0.0822
     18 O3'         2.7418   -0.8086    1.7389 O.3       1 ATP        -0.5784
     19 C2'         0.7477    0.1630    0.7858 C.3       1 ATP         0.0580
     20 O2'         0.1373   -0.0577    2.0407 O.3       1 ATP        -0.5710
     21 C1'         1.3733    1.5427    0.6747 C.3       1 ATP         0.4076
     22 N9          0.4520    2.5240    0.1767 N.pl3     1 ATP        -0.4359
     23 C8          0.1798    2.8712   -1.2933 C.ar      1 ATP         0.1755
     24 N7         -0.7494    3.8400   -1.3610 N.2       1 ATP        -0.2905
     25 C5         -1.0173    4.0603   -0.0358 C.ar      1 ATP        -0.1036
     26 C6         -2.0105    5.0717    0.4241 C.ar      1 ATP         0.4096
     27 N6         -2.6723    5.7982   -0.4628 N.pl3     1 ATP        -0.8318
     28 N1         -2.1445    5.1522    1.7502 N.pl3     1 ATP        -0.7165
     29 C2         -1.3755    4.3143    2.6427 C.ar      1 ATP         0.6120
     30 N3         -0.5075    3.4292    2.2616 N.ar      1 ATP        -0.5097
     31 C4         -0.3667    3.3425    0.9070 C.ar      1 ATP         0.2352
     32 HOB2        6.0262   -2.7210   -5.3018 H         1 ATP         0.4987
     33 HOA2       -0.0803   -2.3081   -3.2542 H         1 ATP         0.4629
     34 H5'1        2.8432    0.3119   -2.6398 H         1 ATP         0.0490
     35 H5'2        1.2128   -0.0927   -2.0428 H         1 ATP         0.0490
     36 H4'         3.8040   -0.1399   -0.4044 H         1 ATP         0.1109
     37 H3'         1.6768   -1.7637    0.2732 H         1 ATP         0.0811
     38 HO3'        2.2231   -1.2979    2.3952 H         1 ATP         0.4115
     39 H2'         0.0002   -0.0084   -0.0014 H         1 ATP         0.0694
     40 HO2'       -0.6132    0.5577    2.1063 H         1 ATP         0.4114
     41 H1'         1.7718    1.9211    1.6015 H         1 ATP         0.1324
     42 H8          0.6089    2.4651   -2.2147 H         1 ATP         0.2428
     43 HN61       -2.5055    5.6680   -1.4503 H         1 ATP         0.4700
     44 HN62       -3.3462    6.4841   -0.1542 H         1 ATP         0.4700
     45 H2         -1.5932    4.4937    3.7066 H         1 ATP         0.0755
     46 H46        -2.8098    5.8270    2.1160 H         1 ATP         0.4610
@<TRIPOS>BOND
     1    1    2 2
     2    1    3 1
     3    1    4 1
     4    1    8 1
     5    5    6 2
     6    5    7 1
     7    5    8 1
     8    5   12 1
     9    7   32 1
    10    9   10 2
    11    9   11 1
    12    9   12 1
    13    9   13 1
    14   11   33 1
    15   13   14 1
    16   14   15 1
    17   14   34 1
    18   14   35 1
    19   15   16 1
    20   15   17 1
    21   15   36 1
    22   16   21 1
    23   17   18 1
    24   17   19 1
    25   17   37 1
    26   18   38 1
    27   19   20 1
    28   19   21 1
    29   19   39 1
    30   20   40 1
    31   21   22 1
    32   21   41 1
    33   22   23 ar
    34   22   31 ar
    35   23   24 ar
    36   23   42 1
    37   24   25 ar
    38   25   26 ar
    39   25   31 ar
    40   26   27 1
    41   26   28 ar
    42   27   43 1
    43   27   44 1
    44   28   29 ar
    45   28   46 1
    46   29   30 ar
    47   29   45 1
    48   30   31 ar
@<TRIPOS>SUBSTRUCTURE
     1 ATP         1 GROUP 0 A     ****
@<TRIPOS>MOLECULE
[[[5-(6-amino-1,8-dihydropurine-6,8-diylium-7-id-9-yl)-3,4-dihydroxy-tetrahydrofuran-2-yl]methoxy-hydroxy-phosphoryl]oxy-hydroxy-phosphoryl] phosphate
   46    48     1     0     0
SMALL
USER_CHARGES

@<TRIPOS>ATOM
      1 PG          6.4255   -3.0116   -6.1544 P.3       1 ATP         1.3273
      2 O1G         6.6301   -2.1075   -7.3656 O.co2     1 ATP        -0.8181
      3 O2G         6.2260   -4.4845   -6.4958 O.co2     1 ATP        -0.8181
      4 O3G         7.4060   -2.7610   -5.0134 O.co2     1 ATP        -0.8181
      5 PB          4.4841   -1.1009   -4.9751 P.3       1 ATP         1.7707
      6 O1B         5.2693   -0.5792   -3.8081 O.2       1 ATP        -0.8474
      7 O2B         4.5035   -0.1589   -6.2886 O.3       1 ATP        -0.8078
      8 O3B         4.9734   -2.5365   -5.5367 O.3       1 ATP        -0.7032
      9 PA          2.1491   -2.2865   -3.6337 P.3       1 ATP         1.7252
     10 O1A         2.4550   -3.7479   -3.7889 O.2       1 ATP        -0.8058
     11 O2A         0.5912   -1.9045   -3.8443 O.3       1 ATP        -0.7761
     12 O3A         2.9105   -1.3357   -4.6964 O.3       1 ATP        -0.7114
     13 O5'         2.5245   -1.6648   -2.1878 O.3       1 ATP        -0.5745
     14 C5'         2.2816   -0.2918   -1.9206 C.3       1 ATP         0.1981
     15 C4'         2.7248    0.0226   -0.4980 C.3       1 ATP         0.1050
     16 O4'         2.4697    1.4219   -0.2462 O.3       1 ATP        -0.3841
     17 C3'         1.9404   -0.7419    0.5596 C.3       1 ATP         0.0822
     18 O3'         2.7418   -0.8086    1.7389 O.3       1 ATP        -0.5784
     19 C2'         0.7477    0.1630    0.7858 C.3       1 ATP         0.0580
     20 O2'         0.1373   -0.0577    2.0407 O.3       1 ATP        -0.5710
     21 C1'         1.3733    1.5427    0.6747 C.3       1 ATP         0.4076
     22 N9          0.4520    2.5240    0.1767 N.pl3     1 ATP        -0.4359
     23 C8          0.1798    2.8712   -1.2933 C.ar      1 ATP         0.1755
     24 N7         -0.7494    3.8400   -1.3610 N.2       1 ATP        -0.2905
     25 C5         -1.0173    4.0603   -0.0358 C.ar      1 ATP        -0.1036
     26 C6         -2.0105    5.0717    0.4241 C.ar      1 ATP         0.4096
     27 N6         -2.6723    5.7982   -0.4628 N.pl3     1 ATP        -0.8318
     28 N1         -2.1445    5.1522    1.7502 N.pl3     1 ATP        -0.7165
     29 C2         -1.3755    4.3143    2.6427 C.ar      1 ATP         0.6120
     30 N3         -0.5075    3.4292    2.2616 N.ar      1 ATP        -0.5097
     31 C4         -0.3667    3.3425    0.9070 C.ar      1 ATP         0.2352
     32 HOB2        5.3634    0.0427   -6.7153 H         1 ATP         0.4987
     33 HOA2       -0.0803   -2.3081   -3.2542 H         1 ATP         0.4629
     34 H5'1        2.8432    0.3119   -2.6398 H         1 ATP         0.0490
     35 H5'2        1.2128   -0.0927   -2.0428 H         1 ATP         0.0490
     36 H4'         3.8040   -0.1399   -0.4044 H         1 ATP         0.1109
     37 H3'         1.6768   -1.7637    0.2732 H         1 ATP         0.0811
     38 HO3'        2.2231   -1.2979    2.3952 H         1 ATP         0.4115
     39 H2'         0.0002   -0.0084   -0.0014 H         1 ATP         0.0694
     40 HO2'       -0.6132    0.5577    2.1063 H         1 ATP         0.4114
     41 H1'         1.7718    1.9211    1.6015 H         1 ATP         0.1324
     42 H8          0.6089    2.4651   -2.2147 H         1 ATP         0.2428
     43 HN61       -2.5055    5.6680   -1.4503 H         1 ATP         0.4700
     44 HN62       -3.3462    6.4841   -0.1542 H         1 ATP         0.4700
     45 H2         -1.5932    4.4937    3.7066 H         1 ATP         0.0755
     46 H46        -2.8098    5.8270    2.1160 H         1 ATP         0.4610
@<TRIPOS>BOND
     1    1    2 2
     2    1    3 1
     3    1    4 1
     4    1    8 1
     5    5    6 2
     6    5    7 1
     7    5    8 1
     8    5   12 1
     9    7   32 1
    10    9   10 2
    11    9   11 1
    12    9   12 1
    13    9   13 1
    14   11   33 1
    15   13   14 1
    16   14   15 1
    17   14   34 1
    18   14   35 1
    19   15   16 1
    20   15   17 1
    21   15   36 1
    22   16   21 1
    23   17   18 1
    24   17   19 1
    25   17   37 1
    26   18   38 1
    27   19   20 1
    28   19   21 1
    29   19   39 1
    30   20   40 1
    31   21   22 1
    32   21   41 1
    33   22   23 ar
    34   22   31 ar
    35   23   24 ar
    36   23   42 1
    37   24   25 ar
    38   25   26 ar
    39   25   31 ar
    40   26   27 1
    41   26   28 ar
    42   27   43 1
    43   27   44 1
    44   28   29 ar
    45   28   46 1
    46   29   30 ar
    47   29   45 1
    48   30   31 ar
@<TRIPOS>SUBSTRUCTURE
     1 ATP         1 GROUP 0 A     ****
@<TRIPOS>MOLECULE
[[[5-(6-amino-1,8-dihydropurine-6,8-diylium-7-id-9-yl)-3,4-dihydroxy-tetrahydrofuran-2-yl]methoxy-hydroxy-phosphoryl]oxy-hydroxy-phosphoryl] phosphate
   46    48     1     0     0
SMALL
USER_CHARGES

@<TRIPOS>ATOM
      1 PG         -0.1166    4.5913   -5.3084 P.3       1 ATP         1.3273
      2 O1G         0.0220    5.1349   -3.8902 O.co2     1 ATP        -0.8181
      3 O2G        -1.5535    4.3140   -5.7379 O.co2     1 ATP        -0.8181
      4 O3G         0.7145    5.3357   -6.3482 O.co2     1 ATP        -0.8181
      5 PB          2.0895    2.6586   -4.8525 P.3       1 ATP         1.7707
      6 O1B         3.1612    3.2359   -5.7292 O.2       1 ATP        -0.8474
      7 O2B         2.2031    3.0471   -3.2875 O.3       1 ATP        -0.8078
      8 O3B         0.5827    3.1007   -5.2396 O.3       1 ATP        -0.7032
      9 PA          3.0909   -0.0734   -4.4162 P.3       1 ATP         1.7252
     10 O1A         4.3584   -0.0336   -5.2196 O.2       1 ATP        -0.8058
     11 O2A         2.2646   -1.4586   -4.5412 O.3       1 ATP        -0.7761
     12 O3A         2.0044    1.0456   -4.8406 O.3       1 ATP        -0.7114
     13 O5'         3.2903    0.1346   -2.8241 O.3       1 ATP        -0.5745
     14 C5'         2.2816   -0.2918   -1.9206 C.3       1 ATP         0.1981
     15 C4'         2.7248    0.0226   -0.4980 C.3       1 ATP         0.1050
     16 O4'         2.4697    1.4219   -0.2462 O.3       1 ATP        -0.3841
     17 C3'         1.9404   -0.7419    0.5596 C.3       1 ATP         0.0822
     18 O3'         2.7418   -0.8086    1.7389 O.3       1 ATP        -0.5784
     19 C2'         0.7477    0.1630    0.7858 C.3       1 ATP         0.0580
     20 O2'         0.1373   -0.0577    2.0407 O.3       1 ATP        -0.5710
     21 C1'         1.3733    1.5427    0.6747 C.3       1 ATP         0.4076
     22 N9          0.4520    2.5240    0.1767 N.pl3     1 ATP        -0.4359
     23 C8         -0.3054    2.4845   -1.1576 C.ar      1 ATP         0.1755
     24 N7         -1.0755    3.5806   -1.2691 N.2       1 ATP        -0.2905
     25 C5         -0.8043    4.2306   -0.0942 C.ar      1 ATP        -0.1036
     26 C6         -1.4324    5.5335    0.2646 C.ar      1 ATP         0.4096
     27 N6         -2.2885    6.1054   -0.5675 N.pl3     1 ATP        -0.8318
     28 N1         -1.0537    6.0229    1.4478 N.pl3     1 ATP        -0.7165
     29 C2         -0.1096    5.3242    2.2908 C.ar      1 ATP         0.6120
     30 N3          0.4468    4.1904    1.9960 N.ar      1 ATP        -0.5097
     31 C4          0.0631    3.6855    0.7877 C.ar      1 ATP         0.2352
     32 HOB2        2.1680    3.9929   -3.0296 H         1 ATP         0.4987
     33 HOA2        2.6963   -2.2952   -4.2661 H         1 ATP         0.4629
     34 H5'1        1.3514    0.2330   -2.1577 H         1 ATP         0.0490
     35 H5'2        2.1280   -1.3678   -2.0460 H         1 ATP         0.0490
     36 H4'         3.8040   -0.1399   -0.4044 H         1 ATP         0.1109
     37 H3'         1.6768   -1.7637    0.2732 H         1 ATP         0.0811
     38 HO3'        2.2231   -1.2979    2.3952 H         1 ATP         0.4115
     39 H2'         0.0002   -0.0084   -0.0014 H         1 ATP         0.0694
     40 HO2'       -0.1554   -0.9852    2.0577 H         1 ATP         0.4114
     41 H1'         1.7718    1.9211    1.6015 H         1 ATP         0.1324
     42 H8         -0.2991    1.7413   -1.9611 H         1 ATP         0.2428
     43 HN61       -2.5167    5.6603   -1.4447 H         1 ATP         0.4700
     44 HN62       -2.7159    6.9882   -0.3270 H         1 ATP         0.4700
     45 H2          0.1059    5.8491    3.2340 H         1 ATP         0.0755
     46 H46        -1.4532    6.9099    1.7401 H         1 ATP         0.4610
@<TRIPOS>BOND
     1    1    2 2
     2    1    3 1
     3    1    4 1
     4    1    8 1
     5    5    6 2
     6    5    7 1
     7    5    8 1
     8    5   12 1
     9    7   32 1
    10    9   10 2
    11    9   11 1
    12    9   12 1
    13    9   13 1
    14   11   33 1
    15   13   14 1
    16   14   15 1
    17   14   34 1
    18   14   35 1
    19   15   16 1
    20   15   17 1
    21   15   36 1
    22   16   21 1
    23   17   18 1
    24   17   19 1
    25   17   37 1
    26   18   38 1
    27   19   20 1
    28   19   21 1
    29   19   39 1
    30   20   40 1
    31   21   22 1
    32   21   41 1
    33   22   23 ar
    34   22   31 ar
    35   23   24 ar
    36   23   42 1
    37   24   25 ar
    38   25   26 ar
    39   25   31 ar
    40   26   27 1
    41   26   28 ar
    42   27   43 1
    43   27   44 1
    44   28   29 ar
    45   28   46 1
    46   29   30 ar
    47   29   45 1
    48   30   31 ar
@<TRIPOS>SUBSTRUCTURE
     1 ATP         1 GROUP 0 A     ****
@<TRIPOS>MOLECULE
[[[5-(6-amino-1,8-dihydropurine-6,8-diylium-7-id-9-yl)-3,4-dihydroxy-tetrahydrofuran-2-yl]methoxy-hydroxy-phosphoryl]oxy-hydroxy-phosphoryl] phosphate
   46    48     1     0     0
SMALL
USER_CHARGES

@<TRIPOS>ATOM
      1 PG          1.3824    4.2141   -6.8276 P.3       1 ATP         1.3273
      2 O1G        -0.1373    4.3265   -6.8887 O.co2     1 ATP        -0.8181
      3 O2G         2.0604    4.1091   -8.1896 O.co2     1 ATP        -0.8181
      4 O3G         2.0454    5.2018   -5.8731 O.co2     1 ATP        -0.8181
      5 PB          1.2097    2.1736   -4.6789 P.3       1 ATP         1.7707
      6 O1B         1.7338    2.9484   -3.5060 O.2       1 ATP        -0.8474
      7 O2B        -0.4016    2.0963   -4.7826 O.3       1 ATP        -0.8078
      8 O3B         1.6509    2.7477   -6.1251 O.3       1 ATP        -0.7032
      9 PA          3.0909   -0.0734   -4.4162 P.3       1 ATP         1.7252
     10 O1A         4.2286    0.4196   -5.2625 O.2       1 ATP        -0.8058
     11 O2A         2.7721   -1.6510   -4.5796 O.3       1 ATP        -0.7761
     12 O3A         1.6716    0.6272   -4.7443 O.3       1 ATP        -0.7114
     13 O5'         3.2903    0.1346   -2.8241 O.3       1 ATP        -0.5745
     14 C5'         2.2816   -0.2918   -1.9206 C.3       1 ATP         0.1981
     15 C4'         2.7248    0.0226   -0.4980 C.3       1 ATP         0.1050
     16 O4'         2.4697    1.4219   -0.2462 O.3       1 ATP        -0.3841
     17 C3'         1.9404   -0.7419    0.5596 C.3       1 ATP         0.0822
     18 O3'         2.7418   -0.8086    1.7389 O.3       1 ATP        -0.5784
     19 C2'         0.7477    0.1630    0.7858 C.3       1 ATP         0.0580
     20 O2'         0.1373   -0.0577    2.0407 O.3       1 ATP        -0.5710
     21 C1'         1.3733    1.5427    0.6747 C.3       1 ATP         0.4076
     22 N9          0.4520    2.5240    0.1767 N.pl3     1 ATP        -0.4359
     23 C8         -0.3054    2.4845   -1.1576 C.ar      1 ATP         0.1755
     24 N7         -1.0755    3.5806   -1.2691 N.2       1 ATP        -0.2905
     25 C5         -0.8043    4.2306   -0.0942 C.ar      1 ATP        -0.1036
     26 C6         -1.4324    5.5335    0.2646 C.ar      1 ATP         0.4096
     27 N6         -2.2885    6.1054   -0.5675 N.pl3     1 ATP        -0.8318
     28 N1         -1.0537    6.0229    1.4478 N.pl3     1 ATP        -0.7165
     29 C2         -0.1096    5.3242    2.2908 C.ar      1 ATP         0.6120
     30 N3          0.4468    4.1904    1.9960 N.ar      1 ATP        -0.5097
     31 C4          0.0631    3.6855    0.7877 C.ar      1 ATP         0.2352
     32 HOB2       -0.9124    2.9297   -4.8641 H         1 ATP         0.4987
     33 HOA2        3.4731   -2.3018   -4.3625 H         1 ATP         0.4629
     34 H5'1        1.3514    0.2330   -2.1577 H         1 ATP         0.0490
     35 H5'2        2.1280   -1.3678   -2.0460 H         1 ATP         0.0490
     36 H4'         3.8040   -0.1399   -0.4044 H         1 ATP         0.1109
     37 H3'         1.6768   -1.7637    0.2732 H         1 ATP         0.0811
     38 HO3'        2.2231   -1.2979    2.3952 H         1 ATP         0.4115
     39 H2'         0.0002   -0.0084   -0.0014 H         1 ATP         0.0694
     40 HO2'       -0.6132    0.5577    2.1063 H         1 ATP         0.4114
     41 H1'         1.7718    1.9211    1.6015 H         1 ATP         0.1324
     42 H8         -0.2991    1.7413   -1.9611 H         1 ATP         0.2428
     43 HN61       -2.5167    5.6603   -1.4447 H         1 ATP         0.4700
     44 HN62       -2.7159    6.9882   -0.3270 H         1 ATP         0.4700
     45 H2          0.1059    5.8491    3.2340 H         1 ATP         0.0755
     46 H46        -1.4532    6.9099    1.7401 H         1 ATP         0.4610
@<TRIPOS>BOND
     1    1    2 2
     2    1    3 1
     3    1    4 1
     4    1    8 1
     5    5    6 2
     6    5    7 1
     7    5    8 1
     8    5   12 1
     9    7   32 1
    10    9   10 2
    11    9   11 1
    12    9   12 1
    13    9   13 1
    14   11   33 1
    15   13   14 1
    16   14   15 1
    17   14   34 1
    18   14   35 1
    19   15   16 1
    20   15   17 1
    21   15   36 1
    22   16   21 1
    23   17   18 1
    24   17   19 1
    25   17   37 1
    26   18   38 1
    27   19   20 1
    28   19   21 1
    29   19   39 1
    30   20   40 1
    31   21   22 1
    32   21   41 1
    33   22   23 ar
    34   22   31 ar
    35   23   24 ar
    36   23   42 1
    37   24   25 ar
    38   25   26 ar
    39   25   31 ar
    40   26   27 1
    41   26   28 ar
    42   27   43 1
    43   27   44 1
    44   28   29 ar
    45   28   46 1
    46   29   30 ar
    47   29   45 1
    48   30   31 ar
@<TRIPOS>SUBSTRUCTURE
     1 ATP         1 GROUP 0 A     ****
@<TRIPOS>MOLECULE
[[[5-(6-amino-1,8-dihydropurine-6,8-diylium-7-id-9-yl)-3,4-dihydroxy-tetrahydrofuran-2-yl]methoxy-hydroxy-phosphoryl]oxy-hydroxy-phosphoryl] phosphate
   46    48     1     0     0
SMALL
USER_CHARGES

@<TRIPOS>ATOM
      1 PG          0.6393   -3.6169   -5.4344 P.3       1 ATP         1.3273
      2 O1G         1.3336   -4.9276   -5.0795 O.co2     1 ATP        -0.8181
      3 O2G        -0.5339   -3.7674   -6.3972 O.co2     1 ATP        -0.8181
      4 O3G         0.3549   -2.7151   -4.2378 O.co2     1 ATP        -0.8181
      5 PB          3.2509   -2.2809   -5.8866 P.3       1 ATP         1.7707
      6 O1B         4.2023   -3.3746   -5.5002 O.2       1 ATP        -0.8474
      7 O2B         3.7099   -1.3922   -7.1564 O.3       1 ATP        -0.8078
      8 O3B         1.7689   -2.7821   -6.2964 O.3       1 ATP        -0.7032
      9 PA          3.9518   -0.1774   -3.9524 P.3       1 ATP         1.7252
     10 O1A         4.6811    0.7849   -4.8444 O.2       1 ATP        -0.8058
     11 O2A         4.9141   -1.1782   -3.1219 O.3       1 ATP        -0.7761
     12 O3A         2.9599   -1.1838   -4.7374 O.3       1 ATP        -0.7114
     13 O5'         3.0213    0.5153   -2.8245 O.3       1 ATP        -0.5745
     14 C5'         2.2816   -0.2918   -1.9206 C.3       1 ATP         0.1981
     15 C4'         2.7248    0.0226   -0.4980 C.3       1 ATP         0.1050
     16 O4'         2.4697    1.4219   -0.2462 O.3       1 ATP        -0.3841
     17 C3'         1.9404   -0.7419    0.5596 C.3       1 ATP         0.0822
     18 O3'         2.7418   -0.8086    1.7389 O.3       1 ATP        -0.5784
     19 C2'         0.7477    0.1630    0.7858 C.3       1 ATP         0.0580
     20 O2'         0.1373   -0.0577    2.0407 O.3       1 ATP        -0.5710
     21 C1'         1.3733    1.5427    0.6747 C.3       1 ATP         0.4076
     22 N9          0.4520    2.5240    0.1767 N.pl3     1 ATP        -0.4359
     23 C8          0.1798    2.8712   -1.2933 C.ar      1 ATP         0.1755
     24 N7         -0.7494    3.8400   -1.3610 N.2       1 ATP        -0.2905
     25 C5         -1.0173    4.0603   -0.0358 C.ar      1 ATP        -0.1036
     26 C6         -2.0105    5.0717    0.4241 C.ar      1 ATP         0.4096
     27 N6         -2.6723    5.7982   -0.4628 N.pl3     1 ATP        -0.8318
     28 N1         -2.1445    5.1522    1.7502 N.pl3     1 ATP        -0.7165
     29 C2         -1.3755    4.3143    2.6427 C.ar      1 ATP         0.6120
     30 N3         -0.5075    3.4292    2.2616 N.ar      1 ATP        -0.5097
     31 C4         -0.3667    3.3425    0.9070 C.ar      1 ATP         0.2352
     32 HOB2        4.5557   -0.8977   -7.1087 H         1 ATP         0.4987
     33 HOA2        5.5722   -0.7980   -2.5020 H         1 ATP         0.4629
     34 H5'1        1.2163   -0.0770   -2.0471 H         1 ATP         0.0490
     35 H5'2        2.4655   -1.3443   -2.1563 H         1 ATP         0.0490
     36 H4'         3.8040   -0.1399   -0.4044 H         1 ATP         0.1109
     37 H3'         1.6768   -1.7637    0.2732 H         1 ATP         0.0811
     38 HO3'        2.2231   -1.2979    2.3952 H         1 ATP         0.4115
     39 H2'         0.0002   -0.0084   -0.0014 H         1 ATP         0.0694
     40 HO2'       -0.6132    0.5577    2.1063 H         1 ATP         0.4114
     41 H1'         1.7718    1.9211    1.6015 H         1 ATP         0.1324
     42 H8          0.6089    2.4651   -2.2147 H         1 ATP         0.2428
     43 HN61       -2.5055    5.6680   -1.4503 H         1 ATP         0.4700
     44 HN62       -3.3462    6.4841   -0.1542 H         1 ATP         0.4700
     45 H2         -1.5932    4.4937    3.7066 H         1 ATP         0.0755
     46 H46        -2.8098    5.8270    2.1160 H         1 ATP         0.4610
@<TRIPOS>BOND
     1    1    2 2
     2    1    3 1
     3    1    4 1
     4    1    8 1
     5    5    6 2
     6    5    7 1
     7    5    8 1
     8    5   12 1
     9    7   32 1
    10    9   10 2
    11    9   11 1
    12    9   12 1
    13    9   13 1
    14   11   33 1
    15   13   14 1
    16   14   15 1
    17   14   34 1
    18   14   35 1
    19   15   16 1
    20   15   17 1
    21   15   36 1
    22   16   21 1
    23   17   18 1
    24   17   19 1
    25   17   37 1
    26   18   38 1
    27   19   20 1
    28   19   21 1
    29   19   39 1
    30   20   40 1
    31   21   22 1
    32   21   41 1
    33   22   23 ar
    34   22   31 ar
    35   23   24 ar
    36   23   42 1
    37   24   25 ar
    38   25   26 ar
    39   25   31 ar
    40   26   27 1
    41   26   28 ar
    42   27   43 1
    43   27   44 1
    44   28   29 ar
    45   28   46 1
    46   29   30 ar
    47   29   45 1
    48   30   31 ar
@<TRIPOS>SUBSTRUCTURE
     1 ATP         1 GROUP 0 A     ****
@<TRIPOS>MOLECULE
[[[5-(6-amino-1,8-dihydropurine-6,8-diylium-7-id-9-yl)-3,4-dihydroxy-tetrahydrofuran-2-yl]methoxy-hydroxy-phosphoryl]oxy-hydroxy-phosphoryl] phosphate
   46    48     1     0     0
SMALL
USER_CHARGES

@<TRIPOS>ATOM
      1 PG          0.6069   -0.4674   -8.0473 P.3       1 ATP         1.3273
      2 O1G         1.4087    0.7147   -8.5817 O.co2     1 ATP        -0.8181
      3 O2G        -0.8258   -0.1273   -7.6502 O.co2     1 ATP        -0.8181
      4 O3G         0.7409   -1.7407   -8.8761 O.co2     1 ATP        -0.8181
      5 PB          2.8662   -1.2978   -6.3106 P.3       1 ATP         1.7707
      6 O1B         3.3011   -2.5616   -6.9920 O.2       1 ATP        -0.8474
      7 O2B         3.7318    0.0146   -6.6863 O.3       1 ATP        -0.8078
      8 O3B         1.3453   -0.8454   -6.6233 O.3       1 ATP        -0.7032
      9 PA          2.1491   -2.2865   -3.6337 P.3       1 ATP         1.7252
     10 O1A         2.4550   -3.7479   -3.7889 O.2       1 ATP        -0.8058
     11 O2A         0.5912   -1.9045   -3.8443 O.3       1 ATP        -0.7761
     12 O3A         2.9105   -1.3357   -4.6964 O.3       1 ATP        -0.7114
     13 O5'         2.5245   -1.6648   -2.1878 O.3       1 ATP        -0.5745
     14 C5'         2.2816   -0.2918   -1.9206 C.3       1 ATP         0.1981
     15 C4'         2.7248    0.0226   -0.4980 C.3       1 ATP         0.1050
     16 O4'         2.4697    1.4219   -0.2462 O.3       1 ATP        -0.3841
     17 C3'         1.9404   -0.7419    0.5596 C.3       1 ATP         0.0822
     18 O3'         2.7418   -0.8086    1.7389 O.3       1 ATP        -0.5784
     19 C2'         0.7477    0.1630    0.7858 C.3       1 ATP         0.0580
     20 O2'         0.1373   -0.0577    2.0407 O.3       1 ATP        -0.5710
     21 C1'         1.3733    1.5427    0.6747 C.3       1 ATP         0.4076
     22 N9          0.4520    2.5240    0.1767 N.pl3     1 ATP        -0.4359
     23 C8          0.1798    2.8712   -1.2933 C.ar      1 ATP         0.1755
     24 N7         -0.7494    3.8400   -1.3610 N.2       1 ATP        -0.2905
     25 C5         -1.0173    4.0603   -0.0358 C.ar      1 ATP        -0.1036
     26 C6         -2.0105    5.0717    0.4241 C.ar      1 ATP         0.4096
     27 N6         -2.6723    5.7982   -0.4628 N.pl3     1 ATP        -0.8318
     28 N1         -2.1445    5.1522    1.7502 N.pl3     1 ATP        -0.7165
     29 C2         -1.3755    4.3143    2.6427 C.ar      1 ATP         0.6120
     30 N3         -0.5075    3.4292    2.2616 N.ar      1 ATP        -0.5097
     31 C4         -0.3667    3.3425    0.9070 C.ar      1 ATP         0.2352
     32 HOB2        3.7674    0.3078   -7.6217 H         1 ATP         0.4987
     33 HOA2       -0.0803   -2.3081   -3.2542 H         1 ATP         0.4629
     34 H5'1        2.8432    0.3119   -2.6398 H         1 ATP         0.0490
     35 H5'2        1.2128   -0.0927   -2.0428 H         1 ATP         0.0490
     36 H4'         3.8040   -0.1399   -0.4044 H         1 ATP         0.1109
     37 H3'         1.6768   -1.7637    0.2732 H         1 ATP         0.0811
     38 HO3'        2.2231   -1.2979    2.3952 H         1 ATP         0.4115
     39 H2'         0.0002   -0.0084   -0.0014 H         1 ATP         0.0694
     40 HO2'       -0.6132    0.5577    2.1063 H         1 ATP         0.4114
     41 H1'         1.7718    1.9211    1.6015 H         1 ATP         0.1324
     42 H8          0.6089    2.4651   -2.2147 H         1 ATP         0.2428
     43 HN61       -2.5055    5.6680   -1.4503 H         1 ATP         0.4700
     44 HN62       -3.3462    6.4841   -0.1542 H         1 ATP         0.4700
     45 H2         -1.5932    4.4937    3.7066 H         1 ATP         0.0755
     46 H46        -2.8098    5.8270    2.1160 H         1 ATP         0.4610
@<TRIPOS>BOND
     1    1    2 2
     2    1    3 1
     3    1    4 1
     4    1    8 1
     5    5    6 2
     6    5    7 1
     7    5    8 1
     8    5   12 1
     9    7   32 1
    10    9   10 2
    11    9   11 1
    12    9   12 1
    13    9   13 1
    14   11   33 1
    15   13   14 1
    16   14   15 1
    17   14   34 1
    18   14   35 1
    19   15   16 1
    20   15   17 1
    21   15   36 1
    22   16   21 1
    23   17   18 1
    24   17   19 1
    25   17   37 1
    26   18   38 1
    27   19   20 1
    28   19   21 1
    29   19   39 1
    30   20   40 1
    31   21   22 1
    32   21   41 1
    33   22   23 ar
    34   22   31 ar
    35   23   24 ar
    36   23   42 1
    37   24   25 ar
    38   25   26 ar
    39   25   31 ar
    40   26   27 1
    41   26   28 ar
    42   27   43 1
    43   27   44 1
    44   28   29 ar
    45   28   46 1
    46   29   30 ar
    47   29   45 1
    48   30   31 ar
@<TRIPOS>SUBSTRUCTURE
     1 ATP         1 GROUP 0 A     ****
@<TRIPOS>MOLECULE
[[[5-(6-amino-1,8-dihydropurine-6,8-diylium-7-id-9-yl)-3,4-dihydroxy-tetrahydrofuran-2-yl]methoxy-hydroxy-phosphoryl]oxy-hydroxy-phosphoryl] phosphate
   46    48     1     0     0
SMALL
USER_CHARGES

@<TRIPOS>ATOM
      1 PG          3.7231    0.4030   -7.5437 P.3       1 ATP         1.3273
      2 O1G         4.1141   -0.6700   -8.5546 O.co2     1 ATP        -0.8181
      3 O2G         4.2649    1.7929   -7.8608 O.co2     1 ATP        -0.8181
      4 O3G         2.2511    0.3812   -7.1454 O.co2     1 ATP        -0.8181
      5 PB          4.4161   -1.3863   -5.2792 P.3       1 ATP         1.7707
      6 O1B         4.7768   -2.6459   -6.0100 O.2       1 ATP        -0.8474
      7 O2B         5.3360   -1.0553   -3.9918 O.3       1 ATP        -0.8078
      8 O3B         4.5104   -0.0359   -6.1641 O.3       1 ATP        -0.7032
      9 PA          2.1491   -2.2865   -3.6337 P.3       1 ATP         1.7252
     10 O1A         2.4550   -3.7479   -3.7889 O.2       1 ATP        -0.8058
     11 O2A         0.5912   -1.9045   -3.8443 O.3       1 ATP        -0.7761
     12 O3A         2.9105   -1.3357   -4.6964 O.3       1 ATP        -0.7114
     13 O5'         2.5245   -1.6648   -2.1878 O.3       1 ATP        -0.5745
     14 C5'         2.2816   -0.2918   -1.9206 C.3       1 ATP         0.1981
     15 C4'         2.7248    0.0226   -0.4980 C.3       1 ATP         0.1050
     16 O4'         2.4697    1.4219   -0.2462 O.3       1 ATP        -0.3841
     17 C3'         1.9404   -0.7419    0.5596 C.3       1 ATP         0.0822
     18 O3'         2.7418   -0.8086    1.7389 O.3       1 ATP        -0.5784
     19 C2'         0.7477    0.1630    0.7858 C.3       1 ATP         0.0580
     20 O2'         0.1373   -0.0577    2.0407 O.3       1 ATP        -0.5710
     21 C1'         1.3733    1.5427    0.6747 C.3       1 ATP         0.4076
     22 N9          0.4520    2.5240    0.1767 N.pl3     1 ATP        -0.4359
     23 C8          0.1798    2.8712   -1.2933 C.ar      1 ATP         0.1755
     24 N7         -0.7494    3.8400   -1.3610 N.2       1 ATP        -0.2905
     25 C5         -1.0173    4.0603   -0.0358 C.ar      1 ATP        -0.1036
     26 C6         -2.0105    5.0717    0.4241 C.ar      1 ATP         0.4096
     27 N6         -2.6723    5.7982   -0.4628 N.pl3     1 ATP        -0.8318
     28 N1         -2.1445    5.1522    1.7502 N.pl3     1 ATP        -0.7165
     29 C2         -1.3755    4.3143    2.6427 C.ar      1 ATP         0.6120
     30 N3         -0.5075    3.4292    2.2616 N.ar      1 ATP        -0.5097
     31 C4         -0.3667    3.3425    0.9070 C.ar      1 ATP         0.2352
     32 HOB2        5.3671   -1.6993   -3.2527 H         1 ATP         0.4987
     33 HOA2       -0.0803   -2.3081   -3.2542 H         1 ATP         0.4629
     34 H5'1        2.8432    0.3119   -2.6398 H         1 ATP         0.0490
     35 H5'2        1.2128   -0.0927   -2.0428 H         1 ATP         0.0490
     36 H4'         3.8040   -0.1399   -0.4044 H         1 ATP         0.1109
     37 H3'         1.6768   -1.7637    0.2732 H         1 ATP         0.0811
     38 HO3'        2.2231   -1.2979    2.3952 H         1 ATP         0.4115
     39 H2'         0.0002   -0.0084   -0.0014 H         1 ATP         0.0694
     40 HO2'       -0.6132    0.5577    2.1063 H         1 ATP         0.4114
     41 H1'         1.7718    1.9211    1.6015 H         1 ATP         0.1324
     42 H8          0.6089    2.4651   -2.2147 H         1 ATP         0.2428
     43 HN61       -2.5055    5.6680   -1.4503 H         1 ATP         0.4700
     44 HN62       -3.3462    6.4841   -0.1542 H         1 ATP         0.4700
     45 H2         -1.5932    4.4937    3.7066 H         1 ATP         0.0755
     46 H46        -2.8098    5.8270    2.1160 H         1 ATP         0.4610
@<TRIPOS>BOND
     1    1    2 2
     2    1    3 1
     3    1    4 1
     4    1    8 1
     5    5    6 2
     6    5    7 1
     7    5    8 1
     8    5   12 1
     9    7   32 1
    10    9   10 2
    11    9   11 1
    12    9   12 1
    13    9   13 1
    14   11   33 1
    15   13   14 1
    16   14   15 1
    17   14   34 1
    18   14   35 1
    19   15   16 1
    20   15   17 1
    21   15   36 1
    22   16   21 1
    23   17   18 1
    24   17   19 1
    25   17   37 1
    26   18   38 1
    27   19   20 1
    28   19   21 1
    29   19   39 1
    30   20   40 1
    31   21   22 1
    32   21   41 1
    33   22   23 ar
    34   22   31 ar
    35   23   24 ar
    36   23   42 1
    37   24   25 ar
    38   25   26 ar
    39   25   31 ar
    40   26   27 1
    41   26   28 ar
    42   27   43 1
    43   27   44 1
    44   28   29 ar
    45   28   46 1
    46   29   30 ar
    47   29   45 1
    48   30   31 ar
@<TRIPOS>SUBSTRUCTURE
     1 ATP         1 GROUP 0 A     ****
@<TRIPOS>MOLECULE
[[[5-(6-amino-1,8-dihydropurine-6,8-diylium-7-id-9-yl)-3,4-dihydroxy-tetrahydrofuran-2-yl]methoxy-hydroxy-phosphoryl]oxy-hydroxy-phosphoryl] phosphate
   46    48     1     0     0
SMALL
USER_CHARGES

@<TRIPOS>ATOM
      1 PG          6.1325    1.4717   -4.7773 P.3       1 ATP         1.3273
      2 O1G         5.4538    2.2058   -5.9289 O.co2     1 ATP        -0.8181
      3 O2G         7.6154    1.7894   -4.6160 O.co2     1 ATP        -0.8181
      4 O3G         5.3435    1.4889   -3.4722 O.co2     1 ATP        -0.8181
      5 PB          4.8595   -1.0886   -5.5737 P.3       1 ATP         1.7707
      6 O1B         3.9936   -0.6355   -6.7120 O.2       1 ATP        -0.8474
      7 O2B         5.5618   -2.5298   -5.7802 O.3       1 ATP        -0.8078
      8 O3B         6.1026   -0.1114   -5.2341 O.3       1 ATP        -0.7032
      9 PA          2.8586   -2.1490   -3.6951 P.3       1 ATP         1.7252
     10 O1A         3.0953   -3.6239   -3.8443 O.2       1 ATP        -0.8058
     11 O2A         1.6336   -1.5763   -4.5831 O.3       1 ATP        -0.7761
     12 O3A         4.1078   -1.2300   -4.1510 O.3       1 ATP        -0.7114
     13 O5'         2.5245   -1.6648   -2.1878 O.3       1 ATP        -0.5745
     14 C5'         2.2816   -0.2918   -1.9206 C.3       1 ATP         0.1981
     15 C4'         2.7248    0.0226   -0.4980 C.3       1 ATP         0.1050
     16 O4'         2.4697    1.4219   -0.2462 O.3       1 ATP        -0.3841
     17 C3'         1.9404   -0.7419    0.5596 C.3       1 ATP         0.0822
     18 O3'         2.7418   -0.8086    1.7389 O.3       1 ATP        -0.5784
     19 C2'         0.7477    0.1630    0.7858 C.3       1 ATP         0.0580
     20 O2'         0.1373   -0.0577    2.0407 O.3       1 ATP        -0.5710
     21 C1'         1.3733    1.5427    0.6747 C.3       1 ATP         0.4076
     22 N9          0.4520    2.5240    0.1767 N.pl3     1 ATP        -0.4359
     23 C8          0.1798    2.8712   -1.2933 C.ar      1 ATP         0.1755
     24 N7         -0.7494    3.8400   -1.3610 N.2       1 ATP        -0.2905
     25 C5         -1.0173    4.0603   -0.0358 C.ar      1 ATP        -0.1036
     26 C6         -2.0105    5.0717    0.4241 C.ar      1 ATP         0.4096
     27 N6         -2.6723    5.7982   -0.4628 N.pl3     1 ATP        -0.8318
     28 N1         -2.1445    5.1522    1.7502 N.pl3     1 ATP        -0.7165
     29 C2         -1.3755    4.3143    2.6427 C.ar      1 ATP         0.6120
     30 N3         -0.5075    3.4292    2.2616 N.ar      1 ATP        -0.5097
     31 C4         -0.3667    3.3425    0.9070 C.ar      1 ATP         0.2352
     32 HOB2        4.9949   -3.3195   -5.9114 H         1 ATP         0.4987
     33 HOA2        0.7325   -1.9344   -4.4355 H         1 ATP         0.4629
     34 H5'1        2.8432    0.3119   -2.6398 H         1 ATP         0.0490
     35 H5'2        1.2128   -0.0927   -2.0428 H         1 ATP         0.0490
     36 H4'         3.8040   -0.1399   -0.4044 H         1 ATP         0.1109
     37 H3'         1.6768   -1.7637    0.2732 H         1 ATP         0.0811
     38 HO3'        2.2231   -1.2979    2.3952 H         1 ATP         0.4115
     39 H2'         0.0002   -0.0084   -0.0014 H         1 ATP         0.0694
     40 HO2'       -0.1554   -0.9852    2.0577 H         1 ATP         0.4114
     41 H1'         1.7718    1.9211    1.6015 H         1 ATP         0.1324
     42 H8          0.6089    2.4651   -2.2147 H         1 ATP         0.2428
     43 HN61       -2.5055    5.6680   -1.4503 H         1 ATP         0.4700
     44 HN62       -3.3462    6.4841   -0.1542 H         1 ATP         0.4700
     45 H2         -1.5932    4.4937    3.7066 H         1 ATP         0.0755
     46 H46        -2.8098    5.8270    2.1160 H         1 ATP         0.4610
@<TRIPOS>BOND
     1    1    2 2
     2    1    3 1
     3    1    4 1
     4    1    8 1
     5    5    6 2
     6    5    7 1
     7    5    8 1
     8    5   12 1
     9    7   32 1
    10    9   10 2
    11    9   11 1
    12    9   12 1
    13    9   13 1
    14   11   33 1
    15   13   14 1
    16   14   15 1
    17   14   34 1
    18   14   35 1
    19   15   16 1
    20   15   17 1
    21   15   36 1
    22   16   21 1
    23   17   18 1
    24   17   19 1
    25   17   37 1
    26   18   38 1
    27   19   20 1
    28   19   21 1
    29   19   39 1
    30   20   40 1
    31   21   22 1
    32   21   41 1
    33   22   23 ar
    34   22   31 ar
    35   23   24 ar
    36   23   42 1
    37   24   25 ar
    38   25   26 ar
    39   25   31 ar
    40   26   27 1
    41   26   28 ar
    42   27   43 1
    43   27   44 1
    44   28   29 ar
    45   28   46 1
    46   29   30 ar
    47   29   45 1
    48   30   31 ar
@<TRIPOS>SUBSTRUCTURE
     1 ATP         1 GROUP 0 A     ****
@<TRIPOS>MOLECULE
[[[5-(6-amino-1,8-dihydropurine-6,8-diylium-7-id-9-yl)-3,4-dihydroxy-tetrahydrofuran-2-yl]methoxy-hydroxy-phosphoryl]oxy-hydroxy-phosphoryl] phosphate
   46    48     1     0     0
SMALL
USER_CHARGES

@<TRIPOS>ATOM
      1 PG         -1.2853   -0.5907   -4.9238 P.3       1 ATP         1.3273
      2 O1G        -0.5892   -1.7053   -4.1498 O.co2     1 ATP        -0.8181
      3 O2G        -2.4800   -1.0516   -5.7521 O.co2     1 ATP        -0.8181
      4 O3G        -1.5392    0.6732   -4.1089 O.co2     1 ATP        -0.8181
      5 PB          1.3218    0.4747   -5.8608 P.3       1 ATP         1.7707
      6 O1B         2.0364    0.7889   -7.1419 O.2       1 ATP        -0.8474
      7 O2B         1.1049    1.7348   -4.8719 O.3       1 ATP        -0.8078
      8 O3B        -0.1711   -0.1198   -6.0431 O.3       1 ATP        -0.7032
      9 PA          3.4999   -0.6421   -4.2280 P.3       1 ATP         1.7252
     10 O1A         4.5977   -0.0936   -5.0926 O.2       1 ATP        -0.8058
     11 O2A         3.6936   -2.1918   -3.8061 O.3       1 ATP        -0.7761
     12 O3A         2.0410   -0.6272   -4.9239 O.3       1 ATP        -0.7114
     13 O5'         3.2903    0.1346   -2.8241 O.3       1 ATP        -0.5745
     14 C5'         2.2816   -0.2918   -1.9206 C.3       1 ATP         0.1981
     15 C4'         2.7248    0.0226   -0.4980 C.3       1 ATP         0.1050
     16 O4'         2.4697    1.4219   -0.2462 O.3       1 ATP        -0.3841
     17 C3'         1.9404   -0.7419    0.5596 C.3       1 ATP         0.0822
     18 O3'         2.7418   -0.8086    1.7389 O.3       1 ATP        -0.5784
     19 C2'         0.7477    0.1630    0.7858 C.3       1 ATP         0.0580
     20 O2'         0.1373   -0.0577    2.0407 O.3       1 ATP        -0.5710
     21 C1'         1.3733    1.5427    0.6747 C.3       1 ATP         0.4076
     22 N9          0.4520    2.5240    0.1767 N.pl3     1 ATP        -0.4359
     23 C8          0.1798    2.8712   -1.2933 C.ar      1 ATP         0.1755
     24 N7         -0.7494    3.8400   -1.3610 N.2       1 ATP        -0.2905
     25 C5         -1.0173    4.0603   -0.0358 C.ar      1 ATP        -0.1036
     26 C6         -2.0105    5.0717    0.4241 C.ar      1 ATP         0.4096
     27 N6         -2.6723    5.7982   -0.4628 N.pl3     1 ATP        -0.8318
     28 N1         -2.1445    5.1522    1.7502 N.pl3     1 ATP        -0.7165
     29 C2         -1.3755    4.3143    2.6427 C.ar      1 ATP         0.6120
     30 N3         -0.5075    3.4292    2.2616 N.ar      1 ATP        -0.5097
     31 C4         -0.3667    3.3425    0.9070 C.ar      1 ATP         0.2352
     32 HOB2        1.8913    2.2151   -4.5357 H         1 ATP         0.4987
     33 HOA2        4.4907   -2.4486   -3.2956 H         1 ATP         0.4629
     34 H5'1        1.3514    0.2330   -2.1577 H         1 ATP         0.0490
     35 H5'2        2.1280   -1.3678   -2.0460 H         1 ATP         0.0490
     36 H4'         3.8040   -0.1399   -0.4044 H         1 ATP         0.1109
     37 H3'         1.6768   -1.7637    0.2732 H         1 ATP         0.0811
     38 HO3'        3.5553   -1.2733    1.4913 H         1 ATP         0.4115
     39 H2'         0.0002   -0.0084   -0.0014 H         1 ATP         0.0694
     40 HO2'       -0.1554   -0.9852    2.0577 H         1 ATP         0.4114
     41 H1'         1.7718    1.9211    1.6015 H         1 ATP         0.1324
     42 H8          0.6089    2.4651   -2.2147 H         1 ATP         0.2428
     43 HN61       -2.5055    5.6680   -1.4503 H         1 ATP         0.4700
     44 HN62       -3.3462    6.4841   -0.1542 H         1 ATP         0.4700
     45 H2         -1.5932    4.4937    3.7066 H         1 ATP         0.0755
     46 H46        -2.8098    5.8270    2.1160 H         1 ATP         0.4610
@<TRIPOS>BOND
     1    1    2 2
     2    1    3 1
     3    1    4 1
     4    1    8 1
     5    5    6 2
     6    5    7 1
     7    5    8 1
     8    5   12 1
     9    7   32 1
    10    9   10 2
    11    9   11 1
    12    9   12 1
    13    9   13 1
    14   11   33 1
    15   13   14 1
    16   14   15 1
    17   14   34 1
    18   14   35 1
    19   15   16 1
    20   15   17 1
    21   15   36 1
    22   16   21 1
    23   17   18 1
    24   17   19 1
    25   17   37 1
    26   18   38 1
    27   19   20 1
    28   19   21 1
    29   19   39 1
    30   20   40 1
    31   21   22 1
    32   21   41 1
    33   22   23 ar
    34   22   31 ar
    35   23   24 ar
    36   23   42 1
    37   24   25 ar
    38   25   26 ar
    39   25   31 ar
    40   26   27 1
    41   26   28 ar
    42   27   43 1
    43   27   44 1
    44   28   29 ar
    45   28   46 1
    46   29   30 ar
    47   29   45 1
    48   30   31 ar
@<TRIPOS>SUBSTRUCTURE
     1 ATP         1 GROUP 0 A     ****
@<TRIPOS>MOLECULE
[[[5-(6-amino-1,8-dihydropurine-6,8-diylium-7-id-9-yl)-3,4-dihydroxy-tetrahydrofuran-2-yl]methoxy-hydroxy-phosphoryl]oxy-hydroxy-phosphoryl] phosphate
   46    48     1     0     0
SMALL
USER_CHARGES

@<TRIPOS>ATOM
      1 PG          4.6043    0.2649   -8.1399 P.3       1 ATP         1.3273
      2 O1G         5.1934   -1.0138   -8.7263 O.co2     1 ATP        -0.8181
      3 O2G         5.6375    1.3319   -7.7936 O.co2     1 ATP        -0.8181
      4 O3G         3.3857    0.7938   -8.8892 O.co2     1 ATP        -0.8181
      5 PB          2.8662   -1.2978   -6.3106 P.3       1 ATP         1.7707
      6 O1B         1.5147   -1.0361   -6.9070 O.2       1 ATP        -0.8474
      7 O2B         3.5457   -2.6987   -6.7449 O.3       1 ATP        -0.8078
      8 O3B         3.9968   -0.2024   -6.6811 O.3       1 ATP        -0.7032
      9 PA          2.1491   -2.2865   -3.6337 P.3       1 ATP         1.7252
     10 O1A         2.4550   -3.7479   -3.7889 O.2       1 ATP        -0.8058
     11 O2A         0.5912   -1.9045   -3.8443 O.3       1 ATP        -0.7761
     12 O3A         2.9105   -1.3357   -4.6964 O.3       1 ATP        -0.7114
     13 O5'         2.5245   -1.6648   -2.1878 O.3       1 ATP        -0.5745
     14 C5'         2.2816   -0.2918   -1.9206 C.3       1 ATP         0.1981
     15 C4'         2.7248    0.0226   -0.4980 C.3       1 ATP         0.1050
     16 O4'         2.4697    1.4219   -0.2462 O.3       1 ATP        -0.3841
     17 C3'         1.9404   -0.7419    0.5596 C.3       1 ATP         0.0822
     18 O3'         2.7418   -0.8086    1.7389 O.3       1 ATP        -0.5784
     19 C2'         0.7477    0.1630    0.7858 C.3       1 ATP         0.0580
     20 O2'         0.1373   -0.0577    2.0407 O.3       1 ATP        -0.5710
     21 C1'         1.3733    1.5427    0.6747 C.3       1 ATP         0.4076
     22 N9          0.4520    2.5240    0.1767 N.pl3     1 ATP        -0.4359
     23 C8          0.1798    2.8712   -1.2933 C.ar      1 ATP         0.1755
     24 N7         -0.7494    3.8400   -1.3610 N.2       1 ATP        -0.2905
     25 C5         -1.0173    4.0603   -0.0358 C.ar      1 ATP        -0.1036
     26 C6         -2.0105    5.0717    0.4241 C.ar      1 ATP         0.4096
     27 N6         -2.6723    5.7982   -0.4628 N.pl3     1 ATP        -0.8318
     28 N1         -2.1445    5.1522    1.7502 N.pl3     1 ATP        -0.7165
     29 C2         -1.3755    4.3143    2.6427 C.ar      1 ATP         0.6120
     30 N3         -0.5075    3.4292    2.2616 N.ar      1 ATP        -0.5097
     31 C4         -0.3667    3.3425    0.9070 C.ar      1 ATP         0.2352
     32 HOB2        3.0816   -3.5368   -6.5342 H         1 ATP         0.4987
     33 HOA2       -0.0803   -2.3081   -3.2542 H         1 ATP         0.4629
     34 H5'1        2.8432    0.3119   -2.6398 H         1 ATP         0.0490
     35 H5'2        1.2128   -0.0927   -2.0428 H         1 ATP         0.0490
     36 H4'         3.8040   -0.1399   -0.4044 H         1 ATP         0.1109
     37 H3'         1.6768   -1.7637    0.2732 H         1 ATP         0.0811
     38 HO3'        2.2231   -1.2979    2.3952 H         1 ATP         0.4115
     39 H2'         0.0002   -0.0084   -0.0014 H         1 ATP         0.0694
     40 HO2'       -0.6132    0.5577    2.1063 H         1 ATP         0.4114
     41 H1'         1.7718    1.9211    1.6015 H         1 ATP         0.1324
     42 H8          0.6089    2.4651   -2.2147 H         1 ATP         0.2428
     43 HN61       -2.5055    5.6680   -1.4503 H         1 ATP         0.4700
     44 HN62       -3.3462    6.4841   -0.1542 H         1 ATP         0.4700
     45 H2         -1.5932    4.4937    3.7066 H         1 ATP         0.0755
     46 H46        -2.8098    5.8270    2.1160 H         1 ATP         0.4610
@<TRIPOS>BOND
     1    1    2 2
     2    1    3 1
     3    1    4 1
     4    1    8 1
     5    5    6 2
     6    5    7 1
     7    5    8 1
     8    5   12 1
     9    7   32 1
    10    9   10 2
    11    9   11 1
    12    9   12 1
    13    9   13 1
    14   11   33 1
    15   13   14 1
    16   14   15 1
    17   14   34 1
    18   14   35 1
    19   15   16 1
    20   15   17 1
    21   15   36 1
    22   16   21 1
    23   17   18 1
    24   17   19 1
    25   17   37 1
    26   18   38 1
    27   19   20 1
    28   19   21 1
    29   19   39 1
    30   20   40 1
    31   21   22 1
    32   21   41 1
    33   22   23 ar
    34   22   31 ar
    35   23   24 ar
    36   23   42 1
    37   24   25 ar
    38   25   26 ar
    39   25   31 ar
    40   26   27 1
    41   26   28 ar
    42   27   43 1
    43   27   44 1
    44   28   29 ar
    45   28   46 1
    46   29   30 ar
    47   29   45 1
    48   30   31 ar
@<TRIPOS>SUBSTRUCTURE
     1 ATP         1 GROUP 0 A     ****
@<TRIPOS>MOLECULE
[[[5-(6-amino-1,8-dihydropurine-6,8-diylium-7-id-9-yl)-3,4-dihydroxy-tetrahydrofuran-2-yl]methoxy-hydroxy-phosphoryl]oxy-hydroxy-phosphoryl] phosphate
   46    48     1     0     0
SMALL
USER_CHARGES

@<TRIPOS>ATOM
      1 PG          0.6714   -3.5890   -4.9445 P.3       1 ATP         1.3273
      2 O1G         1.9494   -3.8924   -4.1696 O.co2     1 ATP        -0.8181
      3 O2G         0.2100   -4.7162   -5.8624 O.co2     1 ATP        -0.8181
      4 O3G        -0.4408   -2.9738   -4.1015 O.co2     1 ATP        -0.8181
      5 PB          1.6781   -0.8945   -5.6767 P.3       1 ATP         1.7707
      6 O1B         1.9541   -0.0684   -6.8982 O.2       1 ATP        -0.8474
      7 O2B         0.5911   -0.2672   -4.6580 O.3       1 ATP        -0.8078
      8 O3B         1.1016   -2.3761   -5.9738 O.3       1 ATP        -0.7032
      9 PA          3.9518   -0.1774   -3.9524 P.3       1 ATP         1.7252
     10 O1A         4.6811    0.7849   -4.8444 O.2       1 ATP        -0.8058
     11 O2A         4.9141   -1.1782   -3.1219 O.3       1 ATP        -0.7761
     12 O3A         2.9599   -1.1838   -4.7374 O.3       1 ATP        -0.7114
     13 O5'         3.0213    0.5153   -2.8245 O.3       1 ATP        -0.5745
     14 C5'         2.2816   -0.2918   -1.9206 C.3       1 ATP         0.1981
     15 C4'         2.7248    0.0226   -0.4980 C.3       1 ATP         0.1050
     16 O4'         2.4697    1.4219   -0.2462 O.3       1 ATP        -0.3841
     17 C3'         1.9404   -0.7419    0.5596 C.3       1 ATP         0.0822
     18 O3'         2.7418   -0.8086    1.7389 O.3       1 ATP        -0.5784
     19 C2'         0.7477    0.1630    0.7858 C.3       1 ATP         0.0580
     20 O2'         0.1373   -0.0577    2.0407 O.3       1 ATP        -0.5710
     21 C1'         1.3733    1.5427    0.6747 C.3       1 ATP         0.4076
     22 N9          0.4520    2.5240    0.1767 N.pl3     1 ATP        -0.4359
     23 C8          0.1798    2.8712   -1.2933 C.ar      1 ATP         0.1755
     24 N7         -0.7494    3.8400   -1.3610 N.2       1 ATP        -0.2905
     25 C5         -1.0173    4.0603   -0.0358 C.ar      1 ATP        -0.1036
     26 C6         -2.0105    5.0717    0.4241 C.ar      1 ATP         0.4096
     27 N6         -2.6723    5.7982   -0.4628 N.pl3     1 ATP        -0.8318
     28 N1         -2.1445    5.1522    1.7502 N.pl3     1 ATP        -0.7165
     29 C2         -1.3755    4.3143    2.6427 C.ar      1 ATP         0.6120
     30 N3         -0.5075    3.4292    2.2616 N.ar      1 ATP        -0.5097
     31 C4         -0.3667    3.3425    0.9070 C.ar      1 ATP         0.2352
     32 HOB2        0.7684    0.6098   -4.2559 H         1 ATP         0.4987
     33 HOA2        5.5722   -0.7980   -2.5020 H         1 ATP         0.4629
     34 H5'1        1.2163   -0.0770   -2.0471 H         1 ATP         0.0490
     35 H5'2        2.4655   -1.3443   -2.1563 H         1 ATP         0.0490
     36 H4'         3.8040   -0.1399   -0.4044 H         1 ATP         0.1109
     37 H3'         1.6768   -1.7637    0.2732 H         1 ATP         0.0811
     38 HO3'        2.2231   -1.2979    2.3952 H         1 ATP         0.4115
     39 H2'         0.0002   -0.0084   -0.0014 H         1 ATP         0.0694
     40 HO2'       -0.6132    0.5577    2.1063 H         1 ATP         0.4114
     41 H1'         1.7718    1.9211    1.6015 H         1 ATP         0.1324
     42 H8          0.6089    2.4651   -2.2147 H         1 ATP         0.2428
     43 HN61       -2.5055    5.6680   -1.4503 H         1 ATP         0.4700
     44 HN62       -3.3462    6.4841   -0.1542 H         1 ATP         0.4700
     45 H2         -1.5932    4.4937    3.7066 H         1 ATP         0.0755
     46 H46        -2.8098    5.8270    2.1160 H         1 ATP         0.4610
@<TRIPOS>BOND
     1    1    2 2
     2    1    3 1
     3    1    4 1
     4    1    8 1
     5    5    6 2
     6    5    7 1
     7    5    8 1
     8    5   12 1
     9    7   32 1
    10    9   10 2
    11    9   11 1
    12    9   12 1
    13    9   13 1
    14   11   33 1
    15   13   14 1
    16   14   15 1
    17   14   34 1
    18   14   35 1
    19   15   16 1
    20   15   17 1
    21   15   36 1
    22   16   21 1
    23   17   18 1
    24   17   19 1
    25   17   37 1
    26   18   38 1
    27   19   20 1
    28   19   21 1
    29   19   39 1
    30   20   40 1
    31   21   22 1
    32   21   41 1
    33   22   23 ar
    34   22   31 ar
    35   23   24 ar
    36   23   42 1
    37   24   25 ar
    38   25   26 ar
    39   25   31 ar
    40   26   27 1
    41   26   28 ar
    42   27   43 1
    43   27   44 1
    44   28   29 ar
    45   28   46 1
    46   29   30 ar
    47   29   45 1
    48   30   31 ar
@<TRIPOS>SUBSTRUCTURE
     1 ATP         1 GROUP 0 A     ****
@<TRIPOS>MOLECULE
[[[5-(6-amino-1,8-dihydropurine-6,8-diylium-7-id-9-yl)-3,4-dihydroxy-tetrahydrofuran-2-yl]methoxy-hydroxy-phosphoryl]oxy-hydroxy-phosphoryl] phosphate
   46    48     1     0     0
SMALL
USER_CHARGES

@<TRIPOS>ATOM
      1 PG         -1.2231   -1.4742   -7.4618 P.3       1 ATP         1.3273
      2 O1G        -0.8599   -0.5969   -8.6552 O.co2     1 ATP        -0.8181
      3 O2G        -2.5721   -1.1486   -6.8295 O.co2     1 ATP        -0.8181
      4 O3G        -0.9784   -2.9634   -7.6820 O.co2     1 ATP        -0.8181
      5 PB          1.4931   -1.1452   -6.3110 P.3       1 ATP         1.7707
      6 O1B         2.0527   -2.5242   -6.5000 O.2       1 ATP        -0.8474
      7 O2B         1.9209   -0.0725   -7.4421 O.3       1 ATP        -0.8078
      8 O3B        -0.1220   -1.0613   -6.3072 O.3       1 ATP        -0.7032
      9 PA          3.3425   -0.0254   -4.3152 P.3       1 ATP         1.7252
     10 O1A         4.1312    0.9222   -5.1718 O.2       1 ATP        -0.8058
     11 O2A         4.0517   -1.4601   -4.0794 O.3       1 ATP        -0.7761
     12 O3A         1.8989   -0.4216   -4.9250 O.3       1 ATP        -0.7114
     13 O5'         3.0213    0.5153   -2.8245 O.3       1 ATP        -0.5745
     14 C5'         2.2816   -0.2918   -1.9206 C.3       1 ATP         0.1981
     15 C4'         2.7248    0.0226   -0.4980 C.3       1 ATP         0.1050
     16 O4'         2.4697    1.4219   -0.2462 O.3       1 ATP        -0.3841
     17 C3'         1.9404   -0.7419    0.5596 C.3       1 ATP         0.0822
     18 O3'         2.7418   -0.8086    1.7389 O.3       1 ATP        -0.5784
     19 C2'         0.7477    0.1630    0.7858 C.3       1 ATP         0.0580
     20 O2'         0.1373   -0.0577    2.0407 O.3       1 ATP        -0.5710
     21 C1'         1.3733    1.5427    0.6747 C.3       1 ATP         0.4076
     22 N9          0.4520    2.5240    0.1767 N.pl3     1 ATP        -0.4359
     23 C8          0.1798    2.8712   -1.2933 C.ar      1 ATP         0.1755
     24 N7         -0.7494    3.8400   -1.3610 N.2       1 ATP        -0.2905
     25 C5         -1.0173    4.0603   -0.0358 C.ar      1 ATP        -0.1036
     26 C6         -2.0105    5.0717    0.4241 C.ar      1 ATP         0.4096
     27 N6         -2.6723    5.7982   -0.4628 N.pl3     1 ATP        -0.8318
     28 N1         -2.1445    5.1522    1.7502 N.pl3     1 ATP        -0.7165
     29 C2         -1.3755    4.3143    2.6427 C.ar      1 ATP         0.6120
     30 N3         -0.5075    3.4292    2.2616 N.ar      1 ATP        -0.5097
     31 C4         -0.3667    3.3425    0.9070 C.ar      1 ATP         0.2352
     32 HOB2        2.8727    0.1267   -7.5713 H         1 ATP         0.4987
     33 HOA2        4.9304   -1.4894   -3.6446 H         1 ATP         0.4629
     34 H5'1        1.2163   -0.0770   -2.0471 H         1 ATP         0.0490
     35 H5'2        2.4655   -1.3443   -2.1563 H         1 ATP         0.0490
     36 H4'         3.8040   -0.1399   -0.4044 H         1 ATP         0.1109
     37 H3'         1.6768   -1.7637    0.2732 H         1 ATP         0.0811
     38 HO3'        2.2231   -1.2979    2.3952 H         1 ATP         0.4115
     39 H2'         0.0002   -0.0084   -0.0014 H         1 ATP         0.0694
     40 HO2'       -0.1554   -0.9852    2.0577 H         1 ATP         0.4114
     41 H1'         1.7718    1.9211    1.6015 H         1 ATP         0.1324
     42 H8          0.6089    2.4651   -2.2147 H         1 ATP         0.2428
     43 HN61       -2.5055    5.6680   -1.4503 H         1 ATP         0.4700
     44 HN62       -3.3462    6.4841   -0.1542 H         1 ATP         0.4700
     45 H2         -1.5932    4.4937    3.7066 H         1 ATP         0.0755
     46 H46        -2.8098    5.8270    2.1160 H         1 ATP         0.4610
@<TRIPOS>BOND
     1    1    2 2
     2    1    3 1
     3    1    4 1
     4    1    8 1
     5    5    6 2
     6    5    7 1
     7    5    8 1
     8    5   12 1
     9    7   32 1
    10    9   10 2
    11    9   11 1
    12    9   12 1
    13    9   13 1
    14   11   33 1
    15   13   14 1
    16   14   15 1
    17   14   34 1
    18   14   35 1
    19   15   16 1
    20   15   17 1
    21   15   36 1
    22   16   21 1
    23   17   18 1
    24   17   19 1
    25   17   37 1
    26   18   38 1
    27   19   20 1
    28   19   21 1
    29   19   39 1
    30   20   40 1
    31   21   22 1
    32   21   41 1
    33   22   23 ar
    34   22   31 ar
    35   23   24 ar
    36   23   42 1
    37   24   25 ar
    38   25   26 ar
    39   25   31 ar
    40   26   27 1
    41   26   28 ar
    42   27   43 1
    43   27   44 1
    44   28   29 ar
    45   28   46 1
    46   29   30 ar
    47   29   45 1
    48   30   31 ar
@<TRIPOS>SUBSTRUCTURE
     1 ATP         1 GROUP 0 A     ****
@<TRIPOS>MOLECULE
[[[5-(6-amino-1,8-dihydropurine-6,8-diylium-7-id-9-yl)-3,4-dihydroxy-tetrahydrofuran-2-yl]methoxy-hydroxy-phosphoryl]oxy-hydroxy-phosphoryl] phosphate
   46    48     1     0     0
SMALL
USER_CHARGES

@<TRIPOS>ATOM
      1 PG          2.8207    4.5821   -6.1137 P.3       1 ATP         1.3273
      2 O1G         1.7701    5.6865   -6.0608 O.co2     1 ATP        -0.8181
      3 O2G         3.6469    4.5613   -7.3954 O.co2     1 ATP        -0.8181
      4 O3G         3.6425    4.4382   -4.8370 O.co2     1 ATP        -0.8181
      5 PB          0.8586    2.5799   -5.1383 P.3       1 ATP         1.7707
      6 O1B        -0.0698    3.5885   -4.5288 O.2       1 ATP        -0.8474
      7 O2B         0.1359    1.4152   -5.9950 O.3       1 ATP        -0.8078
      8 O3B         1.9406    3.1902   -6.1739 O.3       1 ATP        -0.7032
      9 PA          2.8894    0.6160   -4.3158 P.3       1 ATP         1.7252
     10 O1A         4.0467    1.0418   -5.1719 O.2       1 ATP        -0.8058
     11 O2A         2.0300   -0.6147   -4.9191 O.3       1 ATP        -0.7761
     12 O3A         1.7778    1.7672   -4.0877 O.3       1 ATP        -0.7114
     13 O5'         3.2903    0.1346   -2.8241 O.3       1 ATP        -0.5745
     14 C5'         2.2816   -0.2918   -1.9206 C.3       1 ATP         0.1981
     15 C4'         2.7248    0.0226   -0.4980 C.3       1 ATP         0.1050
     16 O4'         2.4697    1.4219   -0.2462 O.3       1 ATP        -0.3841
     17 C3'         1.9404   -0.7419    0.5596 C.3       1 ATP         0.0822
     18 O3'         2.7418   -0.8086    1.7389 O.3       1 ATP        -0.5784
     19 C2'         0.7477    0.1630    0.7858 C.3       1 ATP         0.0580
     20 O2'         0.1373   -0.0577    2.0407 O.3       1 ATP        -0.5710
     21 C1'         1.3733    1.5427    0.6747 C.3       1 ATP         0.4076
     22 N9          0.4520    2.5240    0.1767 N.pl3     1 ATP        -0.4359
     23 C8         -0.3054    2.4845   -1.1576 C.ar      1 ATP         0.1755
     24 N7         -1.0755    3.5806   -1.2691 N.2       1 ATP        -0.2905
     25 C5         -0.8043    4.2306   -0.0942 C.ar      1 ATP        -0.1036
     26 C6         -1.4324    5.5335    0.2646 C.ar      1 ATP         0.4096
     27 N6         -2.2885    6.1054   -0.5675 N.pl3     1 ATP        -0.8318
     28 N1         -1.0537    6.0229    1.4478 N.pl3     1 ATP        -0.7165
     29 C2         -0.1096    5.3242    2.2908 C.ar      1 ATP         0.6120
     30 N3          0.4468    4.1904    1.9960 N.ar      1 ATP        -0.5097
     31 C4          0.0631    3.6855    0.7877 C.ar      1 ATP         0.2352
     32 HOB2       -0.5112    0.8292   -5.5478 H         1 ATP         0.4987
     33 HOA2        1.5975   -0.5082   -5.7929 H         1 ATP         0.4629
     34 H5'1        1.3514    0.2330   -2.1577 H         1 ATP         0.0490
     35 H5'2        2.1280   -1.3678   -2.0460 H         1 ATP         0.0490
     36 H4'         3.8040   -0.1399   -0.4044 H         1 ATP         0.1109
     37 H3'         1.6768   -1.7637    0.2732 H         1 ATP         0.0811
     38 HO3'        2.2231   -1.2979    2.3952 H         1 ATP         0.4115
     39 H2'         0.0002   -0.0084   -0.0014 H         1 ATP         0.0694
     40 HO2'       -0.1554   -0.9852    2.0577 H         1 ATP         0.4114
     41 H1'         1.7718    1.9211    1.6015 H         1 ATP         0.1324
     42 H8         -0.2991    1.7413   -1.9611 H         1 ATP         0.2428
     43 HN61       -2.5167    5.6603   -1.4447 H         1 ATP         0.4700
     44 HN62       -2.7159    6.9882   -0.3270 H         1 ATP         0.4700
     45 H2          0.1059    5.8491    3.2340 H         1 ATP         0.0755
     46 H46        -1.4532    6.9099    1.7401 H         1 ATP         0.4610
@<TRIPOS>BOND
     1    1    2 2
     2    1    3 1
     3    1    4 1
     4    1    8 1
     5    5    6 2
     6    5    7 1
     7    5    8 1
     8    5   12 1
     9    7   32 1
    10    9   10 2
    11    9   11 1
    12    9   12 1
    13    9   13 1
    14   11   33 1
    15   13   14 1
    16   14   15 1
    17   14   34 1
    18   14   35 1
    19   15   16 1
    20   15   17 1
    21   15   36 1
    22   16   21 1
    23   17   18 1
    24   17   19 1
    25   17   37 1
    26   18   38 1
    27   19   20 1
    28   19   21 1
    29   19   39 1
    30   20   40 1
    31   21   22 1
    32   21   41 1
    33   22   23 ar
    34   22   31 ar
    35   23   24 ar
    36   23   42 1
    37   24   25 ar
    38   25   26 ar
    39   25   31 ar
    40   26   27 1
    41   26   28 ar
    42   27   43 1
    43   27   44 1
    44   28   29 ar
    45   28   46 1
    46   29   30 ar
    47   29   45 1
    48   30   31 ar
@<TRIPOS>SUBSTRUCTURE
     1 ATP         1 GROUP 0 A     ****
@<TRIPOS>MOLECULE
[[[5-(6-amino-1,8-dihydropurine-6,8-diylium-7-id-9-yl)-3,4-dihydroxy-tetrahydrofuran-2-yl]methoxy-hydroxy-phosphoryl]oxy-hydroxy-phosphoryl] phosphate
   46    48     1     0     0
SMALL
USER_CHARGES

@<TRIPOS>ATOM
      1 PG          1.9030    1.2345   -6.3204 P.3       1 ATP         1.3273
      2 O1G         0.8368    1.1781   -5.2314 O.co2     1 ATP        -0.8181
      3 O2G         1.4394    1.8814   -7.6213 O.co2     1 ATP        -0.8181
      4 O3G         3.2681    1.7120   -5.8360 O.co2     1 ATP        -0.8181
      5 PB          2.6562   -1.5925   -5.8196 P.3       1 ATP         1.7707
      6 O1B         2.7662   -2.8956   -6.5549 O.2       1 ATP        -0.8474
      7 O2B         4.0349   -1.0566   -5.1676 O.3       1 ATP        -0.8078
      8 O3B         2.1572   -0.3443   -6.7188 O.3       1 ATP        -0.7032
      9 PA          1.5773   -2.4670   -3.2257 P.3       1 ATP         1.7252
     10 O1A         1.9390   -3.9109   -3.4206 O.2       1 ATP        -0.8058
     11 O2A         0.0767   -2.2235   -2.6724 O.3       1 ATP        -0.7761
     12 O3A         1.6199   -1.5866   -4.5806 O.3       1 ATP        -0.7114
     13 O5'         2.5245   -1.6648   -2.1878 O.3       1 ATP        -0.5745
     14 C5'         2.2816   -0.2918   -1.9206 C.3       1 ATP         0.1981
     15 C4'         2.7248    0.0226   -0.4980 C.3       1 ATP         0.1050
     16 O4'         2.4697    1.4219   -0.2462 O.3       1 ATP        -0.3841
     17 C3'         1.9404   -0.7419    0.5596 C.3       1 ATP         0.0822
     18 O3'         2.7418   -0.8086    1.7389 O.3       1 ATP        -0.5784
     19 C2'         0.7477    0.1630    0.7858 C.3       1 ATP         0.0580
     20 O2'         0.1373   -0.0577    2.0407 O.3       1 ATP        -0.5710
     21 C1'         1.3733    1.5427    0.6747 C.3       1 ATP         0.4076
     22 N9          0.4520    2.5240    0.1767 N.pl3     1 ATP        -0.4359
     23 C8          0.1798    2.8712   -1.2933 C.ar      1 ATP         0.1755
     24 N7         -0.7494    3.8400   -1.3610 N.2       1 ATP        -0.2905
     25 C5         -1.0173    4.0603   -0.0358 C.ar      1 ATP        -0.1036
     26 C6         -2.0105    5.0717    0.4241 C.ar      1 ATP         0.4096
     27 N6         -2.6723    5.7982   -0.4628 N.pl3     1 ATP        -0.8318
     28 N1         -2.1445    5.1522    1.7502 N.pl3     1 ATP        -0.7165
     29 C2         -1.3755    4.3143    2.6427 C.ar      1 ATP         0.6120
     30 N3         -0.5075    3.4292    2.2616 N.ar      1 ATP        -0.5097
     31 C4         -0.3667    3.3425    0.9070 C.ar      1 ATP         0.2352
     32 HOB2        4.4912   -1.6116   -4.4998 H         1 ATP         0.4987
     33 HOA2       -0.1778   -2.6071   -1.8063 H         1 ATP         0.4629
     34 H5'1        2.8432    0.3119   -2.6398 H         1 ATP         0.0490
     35 H5'2        1.2128   -0.0927   -2.0428 H         1 ATP         0.0490
     36 H4'         3.8040   -0.1399   -0.4044 H         1 ATP         0.1109
     37 H3'         1.6768   -1.7637    0.2732 H         1 ATP         0.0811
     38 HO3'        3.5553   -1.2733    1.4913 H         1 ATP         0.4115
     39 H2'         0.0002   -0.0084   -0.0014 H         1 ATP         0.0694
     40 HO2'       -0.1554   -0.9852    2.0577 H         1 ATP         0.4114
     41 H1'         1.7718    1.9211    1.6015 H         1 ATP         0.1324
     42 H8          0.6089    2.4651   -2.2147 H         1 ATP         0.2428
     43 HN61       -2.5055    5.6680   -1.4503 H         1 ATP         0.4700
     44 HN62       -3.3462    6.4841   -0.1542 H         1 ATP         0.4700
     45 H2         -1.5932    4.4937    3.7066 H         1 ATP         0.0755
     46 H46        -2.8098    5.8270    2.1160 H         1 ATP         0.4610
@<TRIPOS>BOND
     1    1    2 2
     2    1    3 1
     3    1    4 1
     4    1    8 1
     5    5    6 2
     6    5    7 1
     7    5    8 1
     8    5   12 1
     9    7   32 1
    10    9   10 2
    11    9   11 1
    12    9   12 1
    13    9   13 1
    14   11   33 1
    15   13   14 1
    16   14   15 1
    17   14   34 1
    18   14   35 1
    19   15   16 1
    20   15   17 1
    21   15   36 1
    22   16   21 1
    23   17   18 1
    24   17   19 1
    25   17   37 1
    26   18   38 1
    27   19   20 1
    28   19   21 1
    29   19   39 1
    30   20   40 1
    31   21   22 1
    32   21   41 1
    33   22   23 ar
    34   22   31 ar
    35   23   24 ar
    36   23   42 1
    37   24   25 ar
    38   25   26 ar
    39   25   31 ar
    40   26   27 1
    41   26   28 ar
    42   27   43 1
    43   27   44 1
    44   28   29 ar
    45   28   46 1
    46   29   30 ar
    47   29   45 1
    48   30   31 ar
@<TRIPOS>SUBSTRUCTURE
     1 ATP         1 GROUP 0 A     ****
@<TRIPOS>MOLECULE
[[[5-(6-amino-1,8-dihydropurine-6,8-diylium-7-id-9-yl)-3,4-dihydroxy-tetrahydrofuran-2-yl]methoxy-hydroxy-phosphoryl]oxy-hydroxy-phosphoryl] phosphate
   46    48     1     0     0
SMALL
USER_CHARGES

@<TRIPOS>ATOM
      1 PG          3.2375   -3.5631   -8.1923 P.3       1 ATP         1.3273
      2 O1G         1.8021   -3.4285   -8.6898 O.co2     1 ATP        -0.8181
      3 O2G         3.6658   -4.9948   -7.8879 O.co2     1 ATP        -0.8181
      4 O3G         4.2566   -2.7627   -8.9967 O.co2     1 ATP        -0.8181
      5 PB          2.8662   -1.2978   -6.3106 P.3       1 ATP         1.7707
      6 O1B         3.7300   -0.2508   -6.9495 O.2       1 ATP        -0.8474
      7 O2B         1.2894   -1.1824   -6.6473 O.3       1 ATP        -0.8078
      8 O3B         3.2264   -2.8200   -6.7214 O.3       1 ATP        -0.7032
      9 PA          2.1491   -2.2865   -3.6337 P.3       1 ATP         1.7252
     10 O1A         2.4550   -3.7479   -3.7889 O.2       1 ATP        -0.8058
     11 O2A         0.5912   -1.9045   -3.8443 O.3       1 ATP        -0.7761
     12 O3A         2.9105   -1.3357   -4.6964 O.3       1 ATP        -0.7114
     13 O5'         2.5245   -1.6648   -2.1878 O.3       1 ATP        -0.5745
     14 C5'         2.2816   -0.2918   -1.9206 C.3       1 ATP         0.1981
     15 C4'         2.7248    0.0226   -0.4980 C.3       1 ATP         0.1050
     16 O4'         2.4697    1.4219   -0.2462 O.3       1 ATP        -0.3841
     17 C3'         1.9404   -0.7419    0.5596 C.3       1 ATP         0.0822
     18 O3'         2.7418   -0.8086    1.7389 O.3       1 ATP        -0.5784
     19 C2'         0.7477    0.1630    0.7858 C.3       1 ATP         0.0580
     20 O2'         0.1373   -0.0577    2.0407 O.3       1 ATP        -0.5710
     21 C1'         1.3733    1.5427    0.6747 C.3       1 ATP         0.4076
     22 N9          0.4520    2.5240    0.1767 N.pl3     1 ATP        -0.4359
     23 C8          0.1798    2.8712   -1.2933 C.ar      1 ATP         0.1755
     24 N7         -0.7494    3.8400   -1.3610 N.2       1 ATP        -0.2905
     25 C5         -1.0173    4.0603   -0.0358 C.ar      1 ATP        -0.1036
     26 C6         -2.0105    5.0717    0.4241 C.ar      1 ATP         0.4096
     27 N6         -2.6723    5.7982   -0.4628 N.pl3     1 ATP        -0.8318
     28 N1         -2.1445    5.1522    1.7502 N.pl3     1 ATP        -0.7165
     29 C2         -1.3755    4.3143    2.6427 C.ar      1 ATP         0.6120
     30 N3         -0.5075    3.4292    2.2616 N.ar      1 ATP        -0.5097
     31 C4         -0.3667    3.3425    0.9070 C.ar      1 ATP         0.2352
     32 HOB2        0.8094   -0.3643   -6.3973 H         1 ATP         0.4987
     33 HOA2       -0.0803   -2.3081   -3.2542 H         1 ATP         0.4629
     34 H5'1        2.8432    0.3119   -2.6398 H         1 ATP         0.0490
     35 H5'2        1.2128   -0.0927   -2.0428 H         1 ATP         0.0490
     36 H4'         3.8040   -0.1399   -0.4044 H         1 ATP         0.1109
     37 H3'         1.6768   -1.7637    0.2732 H         1 ATP         0.0811
     38 HO3'        2.2231   -1.2979    2.3952 H         1 ATP         0.4115
     39 H2'         0.0002   -0.0084   -0.0014 H         1 ATP         0.0694
     40 HO2'       -0.6132    0.5577    2.1063 H         1 ATP         0.4114
     41 H1'         1.7718    1.9211    1.6015 H         1 ATP         0.1324
     42 H8          0.6089    2.4651   -2.2147 H         1 ATP         0.2428
     43 HN61       -2.5055    5.6680   -1.4503 H         1 ATP         0.4700
     44 HN62       -3.3462    6.4841   -0.1542 H         1 ATP         0.4700
     45 H2         -1.5932    4.4937    3.7066 H         1 ATP         0.0755
     46 H46        -2.8098    5.8270    2.1160 H         1 ATP         0.4610
@<TRIPOS>BOND
     1    1    2 2
     2    1    3 1
     3    1    4 1
     4    1    8 1
     5    5    6 2
     6    5    7 1
     7    5    8 1
     8    5   12 1
     9    7   32 1
    10    9   10 2
    11    9   11 1
    12    9   12 1
    13    9   13 1
    14   11   33 1
    15   13   14 1
    16   14   15 1
    17   14   34 1
    18   14   35 1
    19   15   16 1
    20   15   17 1
    21   15   36 1
    22   16   21 1
    23   17   18 1
    24   17   19 1
    25   17   37 1
    26   18   38 1
    27   19   20 1
    28   19   21 1
    29   19   39 1
    30   20   40 1
    31   21   22 1
    32   21   41 1
    33   22   23 ar
    34   22   31 ar
    35   23   24 ar
    36   23   42 1
    37   24   25 ar
    38   25   26 ar
    39   25   31 ar
    40   26   27 1
    41   26   28 ar
    42   27   43 1
    43   27   44 1
    44   28   29 ar
    45   28   46 1
    46   29   30 ar
    47   29   45 1
    48   30   31 ar
@<TRIPOS>SUBSTRUCTURE
     1 ATP         1 GROUP 0 A     ****
@<TRIPOS>MOLECULE
[[[5-(6-amino-1,8-dihydropurine-6,8-diylium-7-id-9-yl)-3,4-dihydroxy-tetrahydrofuran-2-yl]methoxy-hydroxy-phosphoryl]oxy-hydroxy-phosphoryl] phosphate
   46    48     1     0     0
SMALL
USER_CHARGES

@<TRIPOS>ATOM
      1 PG          5.9651    1.5296   -4.1444 P.3       1 ATP         1.3273
      2 O1G         4.4822    1.6748   -4.4699 O.co2     1 ATP        -0.8181
      3 O2G         6.8889    2.3439   -5.0440 O.co2     1 ATP        -0.8181
      4 O3G         6.2924    1.6286   -2.6581 O.co2     1 ATP        -0.8181
      5 PB          5.6983   -1.4196   -3.9425 P.3       1 ATP         1.7707
      6 O1B         6.2780   -2.6655   -4.5445 O.2       1 ATP        -0.8474
      7 O2B         5.8943   -1.2771   -2.3443 O.3       1 ATP        -0.8078
      8 O3B         6.3093   -0.0377   -4.5195 O.3       1 ATP        -0.7032
      9 PA          2.8586   -2.1490   -3.6951 P.3       1 ATP         1.7252
     10 O1A         3.0953   -3.6239   -3.8443 O.2       1 ATP        -0.8058
     11 O2A         1.6336   -1.5763   -4.5831 O.3       1 ATP        -0.7761
     12 O3A         4.1078   -1.2300   -4.1510 O.3       1 ATP        -0.7114
     13 O5'         2.5245   -1.6648   -2.1878 O.3       1 ATP        -0.5745
     14 C5'         2.2816   -0.2918   -1.9206 C.3       1 ATP         0.1981
     15 C4'         2.7248    0.0226   -0.4980 C.3       1 ATP         0.1050
     16 O4'         2.4697    1.4219   -0.2462 O.3       1 ATP        -0.3841
     17 C3'         1.9404   -0.7419    0.5596 C.3       1 ATP         0.0822
     18 O3'         2.7418   -0.8086    1.7389 O.3       1 ATP        -0.5784
     19 C2'         0.7477    0.1630    0.7858 C.3       1 ATP         0.0580
     20 O2'         0.1373   -0.0577    2.0407 O.3       1 ATP        -0.5710
     21 C1'         1.3733    1.5427    0.6747 C.3       1 ATP         0.4076
     22 N9          0.4520    2.5240    0.1767 N.pl3     1 ATP        -0.4359
     23 C8          0.1798    2.8712   -1.2933 C.ar      1 ATP         0.1755
     24 N7         -0.7494    3.8400   -1.3610 N.2       1 ATP        -0.2905
     25 C5         -1.0173    4.0603   -0.0358 C.ar      1 ATP        -0.1036
     26 C6         -2.0105    5.0717    0.4241 C.ar      1 ATP         0.4096
     27 N6         -2.6723    5.7982   -0.4628 N.pl3     1 ATP        -0.8318
     28 N1         -2.1445    5.1522    1.7502 N.pl3     1 ATP        -0.7165
     29 C2         -1.3755    4.3143    2.6427 C.ar      1 ATP         0.6120
     30 N3         -0.5075    3.4292    2.2616 N.ar      1 ATP        -0.5097
     31 C4         -0.3667    3.3425    0.9070 C.ar      1 ATP         0.2352
     32 HOB2        5.5145   -1.9644   -1.7565 H         1 ATP         0.4987
     33 HOA2        0.7325   -1.9344   -4.4355 H         1 ATP         0.4629
     34 H5'1        2.8432    0.3119   -2.6398 H         1 ATP         0.0490
     35 H5'2        1.2128   -0.0927   -2.0428 H         1 ATP         0.0490
     36 H4'         3.8040   -0.1399   -0.4044 H         1 ATP         0.1109
     37 H3'         1.6768   -1.7637    0.2732 H         1 ATP         0.0811
     38 HO3'        2.2231   -1.2979    2.3952 H         1 ATP         0.4115
     39 H2'         0.0002   -0.0084   -0.0014 H         1 ATP         0.0694
     40 HO2'       -0.6132    0.5577    2.1063 H         1 ATP         0.4114
     41 H1'         1.7718    1.9211    1.6015 H         1 ATP         0.1324
     42 H8          0.6089    2.4651   -2.2147 H         1 ATP         0.2428
     43 HN61       -2.5055    5.6680   -1.4503 H         1 ATP         0.4700
     44 HN62       -3.3462    6.4841   -0.1542 H         1 ATP         0.4700
     45 H2         -1.5932    4.4937    3.7066 H         1 ATP         0.0755
     46 H46        -2.8098    5.8270    2.1160 H         1 ATP         0.4610
@<TRIPOS>BOND
     1    1    2 2
     2    1    3 1
     3    1    4 1
     4    1    8 1
     5    5    6 2
     6    5    7 1
     7    5    8 1
     8    5   12 1
     9    7   32 1
    10    9   10 2
    11    9   11 1
    12    9   12 1
    13    9   13 1
    14   11   33 1
    15   13   14 1
    16   14   15 1
    17   14   34 1
    18   14   35 1
    19   15   16 1
    20   15   17 1
    21   15   36 1
    22   16   21 1
    23   17   18 1
    24   17   19 1
    25   17   37 1
    26   18   38 1
    27   19   20 1
    28   19   21 1
    29   19   39 1
    30   20   40 1
    31   21   22 1
    32   21   41 1
    33   22   23 ar
    34   22   31 ar
    35   23   24 ar
    36   23   42 1
    37   24   25 ar
    38   25   26 ar
    39   25   31 ar
    40   26   27 1
    41   26   28 ar
    42   27   43 1
    43   27   44 1
    44   28   29 ar
    45   28   46 1
    46   29   30 ar
    47   29   45 1
    48   30   31 ar
@<TRIPOS>SUBSTRUCTURE
     1 ATP         1 GROUP 0 A     ****
@<TRIPOS>MOLECULE
[[[5-(6-amino-1,8-dihydropurine-6,8-diylium-7-id-9-yl)-3,4-dihydroxy-tetrahydrofuran-2-yl]methoxy-hydroxy-phosphoryl]oxy-hydroxy-phosphoryl] phosphate
   46    48     1     0     0
SMALL
USER_CHARGES

@<TRIPOS>ATOM
      1 PG          4.7202   -4.8461   -5.6197 P.3       1 ATP         1.3273
      2 O1G         3.4582   -5.6405   -5.9396 O.co2     1 ATP        -0.8181
      3 O2G         5.5091   -5.3731   -4.4257 O.co2     1 ATP        -0.8181
      4 O3G         5.5760   -4.5135   -6.8375 O.co2     1 ATP        -0.8181
      5 PB          3.2509   -2.2809   -5.8866 P.3       1 ATP         1.7707
      6 O1B         3.8492   -1.7389   -7.1511 O.2       1 ATP        -0.8474
      7 O2B         1.8303   -3.0303   -6.0686 O.3       1 ATP        -0.8078
      8 O3B         4.1584   -3.3793   -5.1212 O.3       1 ATP        -0.7032
      9 PA          3.9518   -0.1774   -3.9524 P.3       1 ATP         1.7252
     10 O1A         4.6811    0.7849   -4.8444 O.2       1 ATP        -0.8058
     11 O2A         4.9141   -1.1782   -3.1219 O.3       1 ATP        -0.7761
     12 O3A         2.9599   -1.1838   -4.7374 O.3       1 ATP        -0.7114
     13 O5'         3.0213    0.5153   -2.8245 O.3       1 ATP        -0.5745
     14 C5'         2.2816   -0.2918   -1.9206 C.3       1 ATP         0.1981
     15 C4'         2.7248    0.0226   -0.4980 C.3       1 ATP         0.1050
     16 O4'         2.4697    1.4219   -0.2462 O.3       1 ATP        -0.3841
     17 C3'         1.9404   -0.7419    0.5596 C.3       1 ATP         0.0822
     18 O3'         2.7418   -0.8086    1.7389 O.3       1 ATP        -0.5784
     19 C2'         0.7477    0.1630    0.7858 C.3       1 ATP         0.0580
     20 O2'         0.1373   -0.0577    2.0407 O.3       1 ATP        -0.5710
     21 C1'         1.3733    1.5427    0.6747 C.3       1 ATP         0.4076
     22 N9          0.4520    2.5240    0.1767 N.pl3     1 ATP        -0.4359
     23 C8          0.1798    2.8712   -1.2933 C.ar      1 ATP         0.1755
     24 N7         -0.7494    3.8400   -1.3610 N.2       1 ATP        -0.2905
     25 C5         -1.0173    4.0603   -0.0358 C.ar      1 ATP        -0.1036
     26 C6         -2.0105    5.0717    0.4241 C.ar      1 ATP         0.4096
     27 N6         -2.6723    5.7982   -0.4628 N.pl3     1 ATP        -0.8318
     28 N1         -2.1445    5.1522    1.7502 N.pl3     1 ATP        -0.7165
     29 C2         -1.3755    4.3143    2.6427 C.ar      1 ATP         0.6120
     30 N3         -0.5075    3.4292    2.2616 N.ar      1 ATP        -0.5097
     31 C4         -0.3667    3.3425    0.9070 C.ar      1 ATP         0.2352
     32 HOB2        1.7800   -3.8167   -6.6527 H         1 ATP         0.4987
     33 HOA2        5.5722   -0.7980   -2.5020 H         1 ATP         0.4629
     34 H5'1        1.2163   -0.0770   -2.0471 H         1 ATP         0.0490
     35 H5'2        2.4655   -1.3443   -2.1563 H         1 ATP         0.0490
     36 H4'         3.8040   -0.1399   -0.4044 H         1 ATP         0.1109
     37 H3'         1.6768   -1.7637    0.2732 H         1 ATP         0.0811
     38 HO3'        2.2231   -1.2979    2.3952 H         1 ATP         0.4115
     39 H2'         0.0002   -0.0084   -0.0014 H         1 ATP         0.0694
     40 HO2'       -0.6132    0.5577    2.1063 H         1 ATP         0.4114
     41 H1'         1.7718    1.9211    1.6015 H         1 ATP         0.1324
     42 H8          0.6089    2.4651   -2.2147 H         1 ATP         0.2428
     43 HN61       -2.5055    5.6680   -1.4503 H         1 ATP         0.4700
     44 HN62       -3.3462    6.4841   -0.1542 H         1 ATP         0.4700
     45 H2         -1.5932    4.4937    3.7066 H         1 ATP         0.0755
     46 H46        -2.8098    5.8270    2.1160 H         1 ATP         0.4610
@<TRIPOS>BOND
     1    1    2 2
     2    1    3 1
     3    1    4 1
     4    1    8 1
     5    5    6 2
     6    5    7 1
     7    5    8 1
     8    5   12 1
     9    7   32 1
    10    9   10 2
    11    9   11 1
    12    9   12 1
    13    9   13 1
    14   11   33 1
    15   13   14 1
    16   14   15 1
    17   14   34 1
    18   14   35 1
    19   15   16 1
    20   15   17 1
    21   15   36 1
    22   16   21 1
    23   17   18 1
    24   17   19 1
    25   17   37 1
    26   18   38 1
    27   19   20 1
    28   19   21 1
    29   19   39 1
    30   20   40 1
    31   21   22 1
    32   21   41 1
    33   22   23 ar
    34   22   31 ar
    35   23   24 ar
    36   23   42 1
    37   24   25 ar
    38   25   26 ar
    39   25   31 ar
    40   26   27 1
    41   26   28 ar
    42   27   43 1
    43   27   44 1
    44   28   29 ar
    45   28   46 1
    46   29   30 ar
    47   29   45 1
    48   30   31 ar
@<TRIPOS>SUBSTRUCTURE
     1 ATP         1 GROUP 0 A     ****
@<TRIPOS>MOLECULE
[[[5-(6-amino-1,8-dihydropurine-6,8-diylium-7-id-9-yl)-3,4-dihydroxy-tetrahydrofuran-2-yl]methoxy-hydroxy-phosphoryl]oxy-hydroxy-phosphoryl] phosphate
   46    48     1     0     0
SMALL
USER_CHARGES

@<TRIPOS>ATOM
      1 PG          2.2334   -0.2174   -8.4387 P.3       1 ATP         1.3273
      2 O1G         1.3592   -1.3416   -8.9846 O.co2     1 ATP        -0.8181
      3 O2G         3.5692   -0.0548   -9.1563 O.co2     1 ATP        -0.8181
      4 O3G         1.4901    1.0920   -8.1959 O.co2     1 ATP        -0.8181
      5 PB          1.7204   -1.0866   -5.6474 P.3       1 ATP         1.7707
      6 O1B         0.8591    0.0372   -5.1517 O.2       1 ATP        -0.8474
      7 O2B         0.9161   -2.4036   -6.1289 O.3       1 ATP        -0.8078
      8 O3B         2.6433   -0.7236   -6.9249 O.3       1 ATP        -0.7032
      9 PA          4.0068   -0.9375   -3.8015 P.3       1 ATP         1.7252
     10 O1A         5.0551   -0.3602   -4.7078 O.2       1 ATP        -0.8058
     11 O2A         4.5475   -2.0921   -2.8057 O.3       1 ATP        -0.7761
     12 O3A         2.7870   -1.6597   -4.5783 O.3       1 ATP        -0.7114
     13 O5'         3.2903    0.1346   -2.8241 O.3       1 ATP        -0.5745
     14 C5'         2.2816   -0.2918   -1.9206 C.3       1 ATP         0.1981
     15 C4'         2.7248    0.0226   -0.4980 C.3       1 ATP         0.1050
     16 O4'         2.4697    1.4219   -0.2462 O.3       1 ATP        -0.3841
     17 C3'         1.9404   -0.7419    0.5596 C.3       1 ATP         0.0822
     18 O3'         2.7418   -0.8086    1.7389 O.3       1 ATP        -0.5784
     19 C2'         0.7477    0.1630    0.7858 C.3       1 ATP         0.0580
     20 O2'         0.1373   -0.0577    2.0407 O.3       1 ATP        -0.5710
     21 C1'         1.3733    1.5427    0.6747 C.3       1 ATP         0.4076
     22 N9          0.4520    2.5240    0.1767 N.pl3     1 ATP        -0.4359
     23 C8          0.1798    2.8712   -1.2933 C.ar      1 ATP         0.1755
     24 N7         -0.7494    3.8400   -1.3610 N.2       1 ATP        -0.2905
     25 C5         -1.0173    4.0603   -0.0358 C.ar      1 ATP        -0.1036
     26 C6         -2.0105    5.0717    0.4241 C.ar      1 ATP         0.4096
     27 N6         -2.6723    5.7982   -0.4628 N.pl3     1 ATP        -0.8318
     28 N1         -2.1445    5.1522    1.7502 N.pl3     1 ATP        -0.7165
     29 C2         -1.3755    4.3143    2.6427 C.ar      1 ATP         0.6120
     30 N3         -0.5075    3.4292    2.2616 N.ar      1 ATP        -0.5097
     31 C4         -0.3667    3.3425    0.9070 C.ar      1 ATP         0.2352
     32 HOB2        0.2705   -2.3234   -6.8630 H         1 ATP         0.4987
     33 HOA2        5.2586   -1.8729   -2.1667 H         1 ATP         0.4629
     34 H5'1        1.3514    0.2330   -2.1577 H         1 ATP         0.0490
     35 H5'2        2.1280   -1.3678   -2.0460 H         1 ATP         0.0490
     36 H4'         3.8040   -0.1399   -0.4044 H         1 ATP         0.1109
     37 H3'         1.6768   -1.7637    0.2732 H         1 ATP         0.0811
     38 HO3'        3.5553   -1.2733    1.4913 H         1 ATP         0.4115
     39 H2'         0.0002   -0.0084   -0.0014 H         1 ATP         0.0694
     40 HO2'       -0.1554   -0.9852    2.0577 H         1 ATP         0.4114
     41 H1'         1.7718    1.9211    1.6015 H         1 ATP         0.1324
     42 H8          0.6089    2.4651   -2.2147 H         1 ATP         0.2428
     43 HN61       -2.5055    5.6680   -1.4503 H         1 ATP         0.4700
     44 HN62       -3.3462    6.4841   -0.1542 H         1 ATP         0.4700
     45 H2         -1.5932    4.4937    3.7066 H         1 ATP         0.0755
     46 H46        -2.8098    5.8270    2.1160 H         1 ATP         0.4610
@<TRIPOS>BOND
     1    1    2 2
     2    1    3 1
     3    1    4 1
     4    1    8 1
     5    5    6 2
     6    5    7 1
     7    5    8 1
     8    5   12 1
     9    7   32 1
    10    9   10 2
    11    9   11 1
    12    9   12 1
    13    9   13 1
    14   11   33 1
    15   13   14 1
    16   14   15 1
    17   14   34 1
    18   14   35 1
    19   15   16 1
    20   15   17 1
    21   15   36 1
    22   16   21 1
    23   17   18 1
    24   17   19 1
    25   17   37 1
    26   18   38 1
    27   19   20 1
    28   19   21 1
    29   19   39 1
    30   20   40 1
    31   21   22 1
    32   21   41 1
    33   22   23 ar
    34   22   31 ar
    35   23   24 ar
    36   23   42 1
    37   24   25 ar
    38   25   26 ar
    39   25   31 ar
    40   26   27 1
    41   26   28 ar
    42   27   43 1
    43   27   44 1
    44   28   29 ar
    45   28   46 1
    46   29   30 ar
    47   29   45 1
    48   30   31 ar
@<TRIPOS>SUBSTRUCTURE
     1 ATP         1 GROUP 0 A     ****
@<TRIPOS>MOLECULE
[[[5-(6-amino-1,8-dihydropurine-6,8-diylium-7-id-9-yl)-3,4-dihydroxy-tetrahydrofuran-2-yl]methoxy-hydroxy-phosphoryl]oxy-hydroxy-phosphoryl] phosphate
   46    48     1     0     0
SMALL
USER_CHARGES

@<TRIPOS>ATOM
      1 PG          1.9247    1.5537   -7.9291 P.3       1 ATP         1.3273
      2 O1G         2.3970    0.1513   -7.5598 O.co2     1 ATP        -0.8181
      3 O2G         2.8540    2.2999   -8.8806 O.co2     1 ATP        -0.8181
      4 O3G         0.4481    1.6393   -8.3012 O.co2     1 ATP        -0.8181
      5 PB          1.2983    2.1598   -5.0918 P.3       1 ATP         1.7707
      6 O1B         1.6497    3.1599   -4.0302 O.2       1 ATP        -0.8474
      7 O2B        -0.2702    2.0937   -5.4768 O.3       1 ATP        -0.8078
      8 O3B         2.0241    2.3980   -6.5173 O.3       1 ATP        -0.7032
      9 PA          3.0909   -0.0734   -4.4162 P.3       1 ATP         1.7252
     10 O1A         4.2286    0.4196   -5.2625 O.2       1 ATP        -0.8058
     11 O2A         2.7721   -1.6510   -4.5796 O.3       1 ATP        -0.7761
     12 O3A         1.6716    0.6272   -4.7443 O.3       1 ATP        -0.7114
     13 O5'         3.2903    0.1346   -2.8241 O.3       1 ATP        -0.5745
     14 C5'         2.2816   -0.2918   -1.9206 C.3       1 ATP         0.1981
     15 C4'         2.7248    0.0226   -0.4980 C.3       1 ATP         0.1050
     16 O4'         2.4697    1.4219   -0.2462 O.3       1 ATP        -0.3841
     17 C3'         1.9404   -0.7419    0.5596 C.3       1 ATP         0.0822
     18 O3'         2.7418   -0.8086    1.7389 O.3       1 ATP        -0.5784
     19 C2'         0.7477    0.1630    0.7858 C.3       1 ATP         0.0580
     20 O2'         0.1373   -0.0577    2.0407 O.3       1 ATP        -0.5710
     21 C1'         1.3733    1.5427    0.6747 C.3       1 ATP         0.4076
     22 N9          0.4520    2.5240    0.1767 N.pl3     1 ATP        -0.4359
     23 C8         -0.3054    2.4845   -1.1576 C.ar      1 ATP         0.1755
     24 N7         -1.0755    3.5806   -1.2691 N.2       1 ATP        -0.2905
     25 C5         -0.8043    4.2306   -0.0942 C.ar      1 ATP        -0.1036
     26 C6         -1.4324    5.5335    0.2646 C.ar      1 ATP         0.4096
     27 N6         -2.2885    6.1054   -0.5675 N.pl3     1 ATP        -0.8318
     28 N1         -1.0537    6.0229    1.4478 N.pl3     1 ATP        -0.7165
     29 C2         -0.1096    5.3242    2.2908 C.ar      1 ATP         0.6120
     30 N3          0.4468    4.1904    1.9960 N.ar      1 ATP        -0.5097
     31 C4          0.0631    3.6855    0.7877 C.ar      1 ATP         0.2352
     32 HOB2       -0.7077    2.8995   -5.8252 H         1 ATP         0.4987
     33 HOA2        3.4731   -2.3018   -4.3625 H         1 ATP         0.4629
     34 H5'1        1.3514    0.2330   -2.1577 H         1 ATP         0.0490
     35 H5'2        2.1280   -1.3678   -2.0460 H         1 ATP         0.0490
     36 H4'         3.8040   -0.1399   -0.4044 H         1 ATP         0.1109
     37 H3'         1.6768   -1.7637    0.2732 H         1 ATP         0.0811
     38 HO3'        2.2231   -1.2979    2.3952 H         1 ATP         0.4115
     39 H2'         0.0002   -0.0084   -0.0014 H         1 ATP         0.0694
     40 HO2'       -0.6132    0.5577    2.1063 H         1 ATP         0.4114
     41 H1'         1.7718    1.9211    1.6015 H         1 ATP         0.1324
     42 H8         -0.2991    1.7413   -1.9611 H         1 ATP         0.2428
     43 HN61       -2.5167    5.6603   -1.4447 H         1 ATP         0.4700
     44 HN62       -2.7159    6.9882   -0.3270 H         1 ATP         0.4700
     45 H2          0.1059    5.8491    3.2340 H         1 ATP         0.0755
     46 H46        -1.4532    6.9099    1.7401 H         1 ATP         0.4610
@<TRIPOS>BOND
     1    1    2 2
     2    1    3 1
     3    1    4 1
     4    1    8 1
     5    5    6 2
     6    5    7 1
     7    5    8 1
     8    5   12 1
     9    7   32 1
    10    9   10 2
    11    9   11 1
    12    9   12 1
    13    9   13 1
    14   11   33 1
    15   13   14 1
    16   14   15 1
    17   14   34 1
    18   14   35 1
    19   15   16 1
    20   15   17 1
    21   15   36 1
    22   16   21 1
    23   17   18 1
    24   17   19 1
    25   17   37 1
    26   18   38 1
    27   19   20 1
    28   19   21 1
    29   19   39 1
    30   20   40 1
    31   21   22 1
    32   21   41 1
    33   22   23 ar
    34   22   31 ar
    35   23   24 ar
    36   23   42 1
    37   24   25 ar
    38   25   26 ar
    39   25   31 ar
    40   26   27 1
    41   26   28 ar
    42   27   43 1
    43   27   44 1
    44   28   29 ar
    45   28   46 1
    46   29   30 ar
    47   29   45 1
    48   30   31 ar
@<TRIPOS>SUBSTRUCTURE
     1 ATP         1 GROUP 0 A     ****
@<TRIPOS>MOLECULE
[[[5-(6-amino-1,8-dihydropurine-6,8-diylium-7-id-9-yl)-3,4-dihydroxy-tetrahydrofuran-2-yl]methoxy-hydroxy-phosphoryl]oxy-hydroxy-phosphoryl] phosphate
   46    48     1     0     0
SMALL
USER_CHARGES

@<TRIPOS>ATOM
      1 PG         -0.0923    4.0906   -7.0301 P.3       1 ATP         1.3273
      2 O1G        -0.6074    3.0092   -7.9742 O.co2     1 ATP        -0.8181
      3 O2G         1.1156    4.8599   -7.5547 O.co2     1 ATP        -0.8181
      4 O3G        -1.1841    4.9719   -6.4325 O.co2     1 ATP        -0.8181
      5 PB         -0.2500    2.2371   -4.7172 P.3       1 ATP         1.7707
      6 O1B        -1.3927    2.8339   -3.9499 O.2       1 ATP        -0.8474
      7 O2B        -0.6394    0.9814   -5.6576 O.3       1 ATP        -0.8078
      8 O3B         0.4894    3.2528   -5.7357 O.3       1 ATP        -0.7032
      9 PA          2.3606    0.9705   -4.2295 P.3       1 ATP         1.7252
     10 O1A         3.2451    1.8209   -5.0944 O.2       1 ATP        -0.8058
     11 O2A         1.8849   -0.4138   -4.9183 O.3       1 ATP        -0.7761
     12 O3A         0.9666    1.6760   -3.8148 O.3       1 ATP        -0.7114
     13 O5'         3.0213    0.5153   -2.8245 O.3       1 ATP        -0.5745
     14 C5'         2.2816   -0.2918   -1.9206 C.3       1 ATP         0.1981
     15 C4'         2.7248    0.0226   -0.4980 C.3       1 ATP         0.1050
     16 O4'         2.4697    1.4219   -0.2462 O.3       1 ATP        -0.3841
     17 C3'         1.9404   -0.7419    0.5596 C.3       1 ATP         0.0822
     18 O3'         2.7418   -0.8086    1.7389 O.3       1 ATP        -0.5784
     19 C2'         0.7477    0.1630    0.7858 C.3       1 ATP         0.0580
     20 O2'         0.1373   -0.0577    2.0407 O.3       1 ATP        -0.5710
     21 C1'         1.3733    1.5427    0.6747 C.3       1 ATP         0.4076
     22 N9          0.4520    2.5240    0.1767 N.pl3     1 ATP        -0.4359
     23 C8          0.5793    3.3338   -1.1209 C.ar      1 ATP         0.1755
     24 N7         -0.4807    4.1508   -1.2458 N.2       1 ATP        -0.2905
     25 C5         -1.1921    3.8572   -0.1126 C.ar      1 ATP        -0.1036
     26 C6         -2.4855    4.5203    0.2163 C.ar      1 ATP         0.4096
     27 N6         -2.9873    5.4319   -0.6020 N.pl3     1 ATP        -0.8318
     28 N1         -3.0414    4.1119    1.3596 N.pl3     1 ATP        -0.7165
     29 C2         -2.4169    3.1071    2.1904 C.ar      1 ATP         0.6120
     30 N3         -1.2928    2.5191    1.9210 N.ar      1 ATP        -0.5097
     31 C4         -0.7202    2.9326    0.7534 C.ar      1 ATP         0.2352
     32 HOB2       -1.0268    0.1808   -5.2439 H         1 ATP         0.4987
     33 HOA2        2.5650   -1.0623   -5.1991 H         1 ATP         0.4629
     34 H5'1        1.2163   -0.0770   -2.0471 H         1 ATP         0.0490
     35 H5'2        2.4655   -1.3443   -2.1563 H         1 ATP         0.0490
     36 H4'         3.8040   -0.1399   -0.4044 H         1 ATP         0.1109
     37 H3'         1.6768   -1.7637    0.2732 H         1 ATP         0.0811
     38 HO3'        2.2231   -1.2979    2.3952 H         1 ATP         0.4115
     39 H2'         0.0002   -0.0084   -0.0014 H         1 ATP         0.0694
     40 HO2'       -0.1554   -0.9852    2.0577 H         1 ATP         0.4114
     41 H1'         1.7718    1.9211    1.6015 H         1 ATP         0.1324
     42 H8          1.3565    3.3309   -1.8916 H         1 ATP         0.2428
     43 HN61       -2.4952    5.6785   -1.4487 H         1 ATP         0.4700
     44 HN62       -3.8637    5.8828   -0.3819 H         1 ATP         0.4700
     45 H2         -2.9911    2.8734    3.1000 H         1 ATP         0.0755
     46 H46        -3.9253    4.5332    1.6302 H         1 ATP         0.4610
@<TRIPOS>BOND
     1    1    2 2
     2    1    3 1
     3    1    4 1
     4    1    8 1
     5    5    6 2
     6    5    7 1
     7    5    8 1
     8    5   12 1
     9    7   32 1
    10    9   10 2
    11    9   11 1
    12    9   12 1
    13    9   13 1
    14   11   33 1
    15   13   14 1
    16   14   15 1
    17   14   34 1
    18   14   35 1
    19   15   16 1
    20   15   17 1
    21   15   36 1
    22   16   21 1
    23   17   18 1
    24   17   19 1
    25   17   37 1
    26   18   38 1
    27   19   20 1
    28   19   21 1
    29   19   39 1
    30   20   40 1
    31   21   22 1
    32   21   41 1
    33   22   23 ar
    34   22   31 ar
    35   23   24 ar
    36   23   42 1
    37   24   25 ar
    38   25   26 ar
    39   25   31 ar
    40   26   27 1
    41   26   28 ar
    42   27   43 1
    43   27   44 1
    44   28   29 ar
    45   28   46 1
    46   29   30 ar
    47   29   45 1
    48   30   31 ar
@<TRIPOS>SUBSTRUCTURE
     1 ATP         1 GROUP 0 A     ****
@<TRIPOS>MOLECULE
[[[5-(6-amino-1,8-dihydropurine-6,8-diylium-7-id-9-yl)-3,4-dihydroxy-tetrahydrofuran-2-yl]methoxy-hydroxy-phosphoryl]oxy-hydroxy-phosphoryl] phosphate
   46    48     1     0     0
SMALL
USER_CHARGES

@<TRIPOS>ATOM
      1 PG          6.4097   -2.3055   -0.3845 P.3       1 ATP         1.3273
      2 O1G         6.5921   -3.8160   -0.4904 O.co2     1 ATP        -0.8181
      3 O2G         5.5729   -1.8554    0.8083 O.co2     1 ATP        -0.8181
      4 O3G         7.6915   -1.5044   -0.5875 O.co2     1 ATP        -0.8181
      5 PB          5.7708   -2.1150   -3.2768 P.3       1 ATP         1.7707
      6 O1B         6.9923   -1.4141   -3.7939 O.2       1 ATP        -0.8474
      7 O2B         5.7760   -3.7213   -3.4576 O.3       1 ATP        -0.8078
      8 O3B         5.4910   -1.9169   -1.6963 O.3       1 ATP        -0.7032
      9 PA          2.8586   -2.1490   -3.6951 P.3       1 ATP         1.7252
     10 O1A         2.6342   -3.6112   -3.9506 O.2       1 ATP        -0.8058
     11 O2A         1.9858   -1.1651   -4.6371 O.3       1 ATP        -0.7761
     12 O3A         4.3770   -1.6586   -3.9537 O.3       1 ATP        -0.7114
     13 O5'         2.5245   -1.6648   -2.1878 O.3       1 ATP        -0.5745
     14 C5'         2.2816   -0.2918   -1.9206 C.3       1 ATP         0.1981
     15 C4'         2.7248    0.0226   -0.4980 C.3       1 ATP         0.1050
     16 O4'         2.4697    1.4219   -0.2462 O.3       1 ATP        -0.3841
     17 C3'         1.9404   -0.7419    0.5596 C.3       1 ATP         0.0822
     18 O3'         2.7418   -0.8086    1.7389 O.3       1 ATP        -0.5784
     19 C2'         0.7477    0.1630    0.7858 C.3       1 ATP         0.0580
     20 O2'         0.1373   -0.0577    2.0407 O.3       1 ATP        -0.5710
     21 C1'         1.3733    1.5427    0.6747 C.3       1 ATP         0.4076
     22 N9          0.4520    2.5240    0.1767 N.pl3     1 ATP        -0.4359
     23 C8          0.1798    2.8712   -1.2933 C.ar      1 ATP         0.1755
     24 N7         -0.7494    3.8400   -1.3610 N.2       1 ATP        -0.2905
     25 C5         -1.0173    4.0603   -0.0358 C.ar      1 ATP        -0.1036
     26 C6         -2.0105    5.0717    0.4241 C.ar      1 ATP         0.4096
     27 N6         -2.6723    5.7982   -0.4628 N.pl3     1 ATP        -0.8318
     28 N1         -2.1445    5.1522    1.7502 N.pl3     1 ATP        -0.7165
     29 C2         -1.3755    4.3143    2.6427 C.ar      1 ATP         0.6120
     30 N3         -0.5075    3.4292    2.2616 N.ar      1 ATP        -0.5097
     31 C4         -0.3667    3.3425    0.9070 C.ar      1 ATP         0.2352
     32 HOB2        5.8400   -4.0969   -4.3615 H         1 ATP         0.4987
     33 HOA2        2.1018   -1.2133   -5.6098 H         1 ATP         0.4629
     34 H5'1        2.8432    0.3119   -2.6398 H         1 ATP         0.0490
     35 H5'2        1.2128   -0.0927   -2.0428 H         1 ATP         0.0490
     36 H4'         3.8040   -0.1399   -0.4044 H         1 ATP         0.1109
     37 H3'         1.6768   -1.7637    0.2732 H         1 ATP         0.0811
     38 HO3'        2.2231   -1.2979    2.3952 H         1 ATP         0.4115
     39 H2'         0.0002   -0.0084   -0.0014 H         1 ATP         0.0694
     40 HO2'       -0.6132    0.5577    2.1063 H         1 ATP         0.4114
     41 H1'         1.7718    1.9211    1.6015 H         1 ATP         0.1324
     42 H8          0.6089    2.4651   -2.2147 H         1 ATP         0.2428
     43 HN61       -2.5055    5.6680   -1.4503 H         1 ATP         0.4700
     44 HN62       -3.3462    6.4841   -0.1542 H         1 ATP         0.4700
     45 H2         -1.5932    4.4937    3.7066 H         1 ATP         0.0755
     46 H46        -2.8098    5.8270    2.1160 H         1 ATP         0.4610
@<TRIPOS>BOND
     1    1    2 2
     2    1    3 1
     3    1    4 1
     4    1    8 1
     5    5    6 2
     6    5    7 1
     7    5    8 1
     8    5   12 1
     9    7   32 1
    10    9   10 2
    11    9   11 1
    12    9   12 1
    13    9   13 1
    14   11   33 1
    15   13   14 1
    16   14   15 1
    17   14   34 1
    18   14   35 1
    19   15   16 1
    20   15   17 1
    21   15   36 1
    22   16   21 1
    23   17   18 1
    24   17   19 1
    25   17   37 1
    26   18   38 1
    27   19   20 1
    28   19   21 1
    29   19   39 1
    30   20   40 1
    31   21   22 1
    32   21   41 1
    33   22   23 ar
    34   22   31 ar
    35   23   24 ar
    36   23   42 1
    37   24   25 ar
    38   25   26 ar
    39   25   31 ar
    40   26   27 1
    41   26   28 ar
    42   27   43 1
    43   27   44 1
    44   28   29 ar
    45   28   46 1
    46   29   30 ar
    47   29   45 1
    48   30   31 ar
@<TRIPOS>SUBSTRUCTURE
     1 ATP         1 GROUP 0 A     ****
@<TRIPOS>MOLECULE
[[[5-(6-amino-1,8-dihydropurine-6,8-diylium-7-id-9-yl)-3,4-dihydroxy-tetrahydrofuran-2-yl]methoxy-hydroxy-phosphoryl]oxy-hydroxy-phosphoryl] phosphate
   46    48     1     0     0
SMALL
USER_CHARGES

@<TRIPOS>ATOM
      1 PG          5.4278   -3.4337   -5.7226 P.3       1 ATP         1.3273
      2 O1G         6.4289   -2.5227   -6.4254 O.co2     1 ATP        -0.8181
      3 O2G         5.5378   -4.9050   -6.1083 O.co2     1 ATP        -0.8181
      4 O3G         5.3034   -3.1877   -4.2225 O.co2     1 ATP        -0.8181
      5 PB          3.2152   -1.5324   -6.2704 P.3       1 ATP         1.7707
      6 O1B         3.9610   -0.4061   -6.9229 O.2       1 ATP        -0.8474
      7 O2B         1.7624   -1.8488   -6.9046 O.3       1 ATP        -0.8078
      8 O3B         3.9657   -2.9642   -6.3206 O.3       1 ATP        -0.7032
      9 PA          2.1491   -2.2865   -3.6337 P.3       1 ATP         1.7252
     10 O1A         2.4550   -3.7479   -3.7889 O.2       1 ATP        -0.8058
     11 O2A         0.5912   -1.9045   -3.8443 O.3       1 ATP        -0.7761
     12 O3A         2.9105   -1.3357   -4.6964 O.3       1 ATP        -0.7114
     13 O5'         2.5245   -1.6648   -2.1878 O.3       1 ATP        -0.5745
     14 C5'         2.2816   -0.2918   -1.9206 C.3       1 ATP         0.1981
     15 C4'         2.7248    0.0226   -0.4980 C.3       1 ATP         0.1050
     16 O4'         2.4697    1.4219   -0.2462 O.3       1 ATP        -0.3841
     17 C3'         1.9404   -0.7419    0.5596 C.3       1 ATP         0.0822
     18 O3'         2.7418   -0.8086    1.7389 O.3       1 ATP        -0.5784
     19 C2'         0.7477    0.1630    0.7858 C.3       1 ATP         0.0580
     20 O2'         0.1373   -0.0577    2.0407 O.3       1 ATP        -0.5710
     21 C1'         1.3733    1.5427    0.6747 C.3       1 ATP         0.4076
     22 N9          0.4520    2.5240    0.1767 N.pl3     1 ATP        -0.4359
     23 C8          0.1798    2.8712   -1.2933 C.ar      1 ATP         0.1755
     24 N7         -0.7494    3.8400   -1.3610 N.2       1 ATP        -0.2905
     25 C5         -1.0173    4.0603   -0.0358 C.ar      1 ATP        -0.1036
     26 C6         -2.0105    5.0717    0.4241 C.ar      1 ATP         0.4096
     27 N6         -2.6723    5.7982   -0.4628 N.pl3     1 ATP        -0.8318
     28 N1         -2.1445    5.1522    1.7502 N.pl3     1 ATP        -0.7165
     29 C2         -1.3755    4.3143    2.6427 C.ar      1 ATP         0.6120
     30 N3         -0.5075    3.4292    2.2616 N.ar      1 ATP        -0.5097
     31 C4         -0.3667    3.3425    0.9070 C.ar      1 ATP         0.2352
     32 HOB2        1.0797   -1.1445   -6.9016 H         1 ATP         0.4987
     33 HOA2       -0.0803   -2.3081   -3.2542 H         1 ATP         0.4629
     34 H5'1        2.8432    0.3119   -2.6398 H         1 ATP         0.0490
     35 H5'2        1.2128   -0.0927   -2.0428 H         1 ATP         0.0490
     36 H4'         3.8040   -0.1399   -0.4044 H         1 ATP         0.1109
     37 H3'         1.6768   -1.7637    0.2732 H         1 ATP         0.0811
     38 HO3'        2.2231   -1.2979    2.3952 H         1 ATP         0.4115
     39 H2'         0.0002   -0.0084   -0.0014 H         1 ATP         0.0694
     40 HO2'       -0.1554   -0.9852    2.0577 H         1 ATP         0.4114
     41 H1'         1.7718    1.9211    1.6015 H         1 ATP         0.1324
     42 H8          0.6089    2.4651   -2.2147 H         1 ATP         0.2428
     43 HN61       -2.5055    5.6680   -1.4503 H         1 ATP         0.4700
     44 HN62       -3.3462    6.4841   -0.1542 H         1 ATP         0.4700
     45 H2         -1.5932    4.4937    3.7066 H         1 ATP         0.0755
     46 H46        -2.8098    5.8270    2.1160 H         1 ATP         0.4610
@<TRIPOS>BOND
     1    1    2 2
     2    1    3 1
     3    1    4 1
     4    1    8 1
     5    5    6 2
     6    5    7 1
     7    5    8 1
     8    5   12 1
     9    7   32 1
    10    9   10 2
    11    9   11 1
    12    9   12 1
    13    9   13 1
    14   11   33 1
    15   13   14 1
    16   14   15 1
    17   14   34 1
    18   14   35 1
    19   15   16 1
    20   15   17 1
    21   15   36 1
    22   16   21 1
    23   17   18 1
    24   17   19 1
    25   17   37 1
    26   18   38 1
    27   19   20 1
    28   19   21 1
    29   19   39 1
    30   20   40 1
    31   21   22 1
    32   21   41 1
    33   22   23 ar
    34   22   31 ar
    35   23   24 ar
    36   23   42 1
    37   24   25 ar
    38   25   26 ar
    39   25   31 ar
    40   26   27 1
    41   26   28 ar
    42   27   43 1
    43   27   44 1
    44   28   29 ar
    45   28   46 1
    46   29   30 ar
    47   29   45 1
    48   30   31 ar
@<TRIPOS>SUBSTRUCTURE
     1 ATP         1 GROUP 0 A     ****
@<TRIPOS>MOLECULE
[[[5-(6-amino-1,8-dihydropurine-6,8-diylium-7-id-9-yl)-3,4-dihydroxy-tetrahydrofuran-2-yl]methoxy-hydroxy-phosphoryl]oxy-hydroxy-phosphoryl] phosphate
   46    48     1     0     0
SMALL
USER_CHARGES

@<TRIPOS>ATOM
      1 PG         -0.6690    0.8184   -5.0710 P.3       1 ATP         1.3273
      2 O1G        -0.3047    1.7748   -6.2017 O.co2     1 ATP        -0.8181
      3 O2G        -1.0346    1.5055   -3.7595 O.co2     1 ATP        -0.8181
      4 O3G        -1.6235   -0.2990   -5.4792 O.co2     1 ATP        -0.8181
      5 PB          1.6781   -0.8945   -5.6767 P.3       1 ATP         1.7707
      6 O1B         1.0057   -2.1142   -6.2343 O.2       1 ATP        -0.8474
      7 O2B         2.2403    0.1422   -6.7823 O.3       1 ATP        -0.8078
      8 O3B         0.7398    0.0305   -4.7389 O.3       1 ATP        -0.7032
      9 PA          3.9518   -0.1774   -3.9524 P.3       1 ATP         1.7252
     10 O1A         4.6811    0.7849   -4.8444 O.2       1 ATP        -0.8058
     11 O2A         4.9141   -1.1782   -3.1219 O.3       1 ATP        -0.7761
     12 O3A         2.9599   -1.1838   -4.7374 O.3       1 ATP        -0.7114
     13 O5'         3.0213    0.5153   -2.8245 O.3       1 ATP        -0.5745
     14 C5'         2.2816   -0.2918   -1.9206 C.3       1 ATP         0.1981
     15 C4'         2.7248    0.0226   -0.4980 C.3       1 ATP         0.1050
     16 O4'         2.4697    1.4219   -0.2462 O.3       1 ATP        -0.3841
     17 C3'         1.9404   -0.7419    0.5596 C.3       1 ATP         0.0822
     18 O3'         2.7418   -0.8086    1.7389 O.3       1 ATP        -0.5784
     19 C2'         0.7477    0.1630    0.7858 C.3       1 ATP         0.0580
     20 O2'         0.1373   -0.0577    2.0407 O.3       1 ATP        -0.5710
     21 C1'         1.3733    1.5427    0.6747 C.3       1 ATP         0.4076
     22 N9          0.4520    2.5240    0.1767 N.pl3     1 ATP        -0.4359
     23 C8          0.1798    2.8712   -1.2933 C.ar      1 ATP         0.1755
     24 N7         -0.7494    3.8400   -1.3610 N.2       1 ATP        -0.2905
     25 C5         -1.0173    4.0603   -0.0358 C.ar      1 ATP        -0.1036
     26 C6         -2.0105    5.0717    0.4241 C.ar      1 ATP         0.4096
     27 N6         -2.6723    5.7982   -0.4628 N.pl3     1 ATP        -0.8318
     28 N1         -2.1445    5.1522    1.7502 N.pl3     1 ATP        -0.7165
     29 C2         -1.3755    4.3143    2.6427 C.ar      1 ATP         0.6120
     30 N3         -0.5075    3.4292    2.2616 N.ar      1 ATP        -0.5097
     31 C4         -0.3667    3.3425    0.9070 C.ar      1 ATP         0.2352
     32 HOB2        1.6109    0.5474   -7.4161 H         1 ATP         0.4987
     33 HOA2        5.5722   -0.7980   -2.5020 H         1 ATP         0.4629
     34 H5'1        1.2163   -0.0770   -2.0471 H         1 ATP         0.0490
     35 H5'2        2.4655   -1.3443   -2.1563 H         1 ATP         0.0490
     36 H4'         3.8040   -0.1399   -0.4044 H         1 ATP         0.1109
     37 H3'         1.6768   -1.7637    0.2732 H         1 ATP         0.0811
     38 HO3'        2.2231   -1.2979    2.3952 H         1 ATP         0.4115
     39 H2'         0.0002   -0.0084   -0.0014 H         1 ATP         0.0694
     40 HO2'       -0.1554   -0.9852    2.0577 H         1 ATP         0.4114
     41 H1'         1.7718    1.9211    1.6015 H         1 ATP         0.1324
     42 H8          0.6089    2.4651   -2.2147 H         1 ATP         0.2428
     43 HN61       -2.5055    5.6680   -1.4503 H         1 ATP         0.4700
     44 HN62       -3.3462    6.4841   -0.1542 H         1 ATP         0.4700
     45 H2         -1.5932    4.4937    3.7066 H         1 ATP         0.0755
     46 H46        -2.8098    5.8270    2.1160 H         1 ATP         0.4610
@<TRIPOS>BOND
     1    1    2 2
     2    1    3 1
     3    1    4 1
     4    1    8 1
     5    5    6 2
     6    5    7 1
     7    5    8 1
     8    5   12 1
     9    7   32 1
    10    9   10 2
    11    9   11 1
    12    9   12 1
    13    9   13 1
    14   11   33 1
    15   13   14 1
    16   14   15 1
    17   14   34 1
    18   14   35 1
    19   15   16 1
    20   15   17 1
    21   15   36 1
    22   16   21 1
    23   17   18 1
    24   17   19 1
    25   17   37 1
    26   18   38 1
    27   19   20 1
    28   19   21 1
    29   19   39 1
    30   20   40 1
    31   21   22 1
    32   21   41 1
    33   22   23 ar
    34   22   31 ar
    35   23   24 ar
    36   23   42 1
    37   24   25 ar
    38   25   26 ar
    39   25   31 ar
    40   26   27 1
    41   26   28 ar
    42   27   43 1
    43   27   44 1
    44   28   29 ar
    45   28   46 1
    46   29   30 ar
    47   29   45 1
    48   30   31 ar
@<TRIPOS>SUBSTRUCTURE
     1 ATP         1 GROUP 0 A     ****
@<TRIPOS>MOLECULE
[[[5-(6-amino-1,8-dihydropurine-6,8-diylium-7-id-9-yl)-3,4-dihydroxy-tetrahydrofuran-2-yl]methoxy-hydroxy-phosphoryl]oxy-hydroxy-phosphoryl] phosphate
   46    48     1     0     0
SMALL
USER_CHARGES

@<TRIPOS>ATOM
      1 PG          4.7450   -1.9027   -8.4233 P.3       1 ATP         1.3273
      2 O1G         5.8232   -2.8830   -7.9731 O.co2     1 ATP        -0.8181
      3 O2G         5.2832   -0.6107   -9.0292 O.co2     1 ATP        -0.8181
      4 O3G         3.6106   -2.5413   -9.2179 O.co2     1 ATP        -0.8181
      5 PB          3.2509   -2.2809   -5.8866 P.3       1 ATP         1.7707
      6 O1B         2.0468   -3.0319   -6.3732 O.2       1 ATP        -0.8474
      7 O2B         4.4194   -3.1997   -5.2513 O.3       1 ATP        -0.8078
      8 O3B         4.0228   -1.4250   -7.0212 O.3       1 ATP        -0.7032
      9 PA          3.9518   -0.1774   -3.9524 P.3       1 ATP         1.7252
     10 O1A         4.6811    0.7849   -4.8444 O.2       1 ATP        -0.8058
     11 O2A         4.9141   -1.1782   -3.1219 O.3       1 ATP        -0.7761
     12 O3A         2.9599   -1.1838   -4.7374 O.3       1 ATP        -0.7114
     13 O5'         3.0213    0.5153   -2.8245 O.3       1 ATP        -0.5745
     14 C5'         2.2816   -0.2918   -1.9206 C.3       1 ATP         0.1981
     15 C4'         2.7248    0.0226   -0.4980 C.3       1 ATP         0.1050
     16 O4'         2.4697    1.4219   -0.2462 O.3       1 ATP        -0.3841
     17 C3'         1.9404   -0.7419    0.5596 C.3       1 ATP         0.0822
     18 O3'         2.7418   -0.8086    1.7389 O.3       1 ATP        -0.5784
     19 C2'         0.7477    0.1630    0.7858 C.3       1 ATP         0.0580
     20 O2'         0.1373   -0.0577    2.0407 O.3       1 ATP        -0.5710
     21 C1'         1.3733    1.5427    0.6747 C.3       1 ATP         0.4076
     22 N9          0.4520    2.5240    0.1767 N.pl3     1 ATP        -0.4359
     23 C8          0.1798    2.8712   -1.2933 C.ar      1 ATP         0.1755
     24 N7         -0.7494    3.8400   -1.3610 N.2       1 ATP        -0.2905
     25 C5         -1.0173    4.0603   -0.0358 C.ar      1 ATP        -0.1036
     26 C6         -2.0105    5.0717    0.4241 C.ar      1 ATP         0.4096
     27 N6         -2.6723    5.7982   -0.4628 N.pl3     1 ATP        -0.8318
     28 N1         -2.1445    5.1522    1.7502 N.pl3     1 ATP        -0.7165
     29 C2         -1.3755    4.3143    2.6427 C.ar      1 ATP         0.6120
     30 N3         -0.5075    3.4292    2.2616 N.ar      1 ATP        -0.5097
     31 C4         -0.3667    3.3425    0.9070 C.ar      1 ATP         0.2352
     32 HOB2        4.2143   -3.7540   -4.4684 H         1 ATP         0.4987
     33 HOA2        5.5722   -0.7980   -2.5020 H         1 ATP         0.4629
     34 H5'1        1.2163   -0.0770   -2.0471 H         1 ATP         0.0490
     35 H5'2        2.4655   -1.3443   -2.1563 H         1 ATP         0.0490
     36 H4'         3.8040   -0.1399   -0.4044 H         1 ATP         0.1109
     37 H3'         1.6768   -1.7637    0.2732 H         1 ATP         0.0811
     38 HO3'        2.2231   -1.2979    2.3952 H         1 ATP         0.4115
     39 H2'         0.0002   -0.0084   -0.0014 H         1 ATP         0.0694
     40 HO2'       -0.6132    0.5577    2.1063 H         1 ATP         0.4114
     41 H1'         1.7718    1.9211    1.6015 H         1 ATP         0.1324
     42 H8          0.6089    2.4651   -2.2147 H         1 ATP         0.2428
     43 HN61       -2.5055    5.6680   -1.4503 H         1 ATP         0.4700
     44 HN62       -3.3462    6.4841   -0.1542 H         1 ATP         0.4700
     45 H2         -1.5932    4.4937    3.7066 H         1 ATP         0.0755
     46 H46        -2.8098    5.8270    2.1160 H         1 ATP         0.4610
@<TRIPOS>BOND
     1    1    2 2
     2    1    3 1
     3    1    4 1
     4    1    8 1
     5    5    6 2
     6    5    7 1
     7    5    8 1
     8    5   12 1
     9    7   32 1
    10    9   10 2
    11    9   11 1
    12    9   12 1
    13    9   13 1
    14   11   33 1
    15   13   14 1
    16   14   15 1
    17   14   34 1
    18   14   35 1
    19   15   16 1
    20   15   17 1
    21   15   36 1
    22   16   21 1
    23   17   18 1
    24   17   19 1
    25   17   37 1
    26   18   38 1
    27   19   20 1
    28   19   21 1
    29   19   39 1
    30   20   40 1
    31   21   22 1
    32   21   41 1
    33   22   23 ar
    34   22   31 ar
    35   23   24 ar
    36   23   42 1
    37   24   25 ar
    38   25   26 ar
    39   25   31 ar
    40   26   27 1
    41   26   28 ar
    42   27   43 1
    43   27   44 1
    44   28   29 ar
    45   28   46 1
    46   29   30 ar
    47   29   45 1
    48   30   31 ar
@<TRIPOS>SUBSTRUCTURE
     1 ATP         1 GROUP 0 A     ****
@<TRIPOS>MOLECULE
[[[5-(6-amino-1,8-dihydropurine-6,8-diylium-7-id-9-yl)-3,4-dihydroxy-tetrahydrofuran-2-yl]methoxy-hydroxy-phosphoryl]oxy-hydroxy-phosphoryl] phosphate
   46    48     1     0     0
SMALL
USER_CHARGES

@<TRIPOS>ATOM
      1 PG         -2.8048   -1.6040   -5.5103 P.3       1 ATP         1.3273
      2 O1G        -2.9278   -0.2462   -6.1939 O.co2     1 ATP        -0.8181
      3 O2G        -3.7163   -1.7838   -4.3008 O.co2     1 ATP        -0.8181
      4 O3G        -2.7971   -2.7896   -6.4696 O.co2     1 ATP        -0.8181
      5 PB          0.1582   -1.4502   -5.5941 P.3       1 ATP         1.7707
      6 O1B         0.4708   -2.5088   -6.6101 O.2       1 ATP        -0.8474
      7 O2B         0.1356    0.0615   -6.1662 O.3       1 ATP        -0.8078
      8 O3B        -1.2835   -1.6008   -4.8768 O.3       1 ATP        -0.7032
      9 PA          1.5773   -2.4670   -3.2257 P.3       1 ATP         1.7252
     10 O1A         2.1787   -3.7242   -3.7837 O.2       1 ATP        -0.8058
     11 O2A         0.1934   -2.6903   -2.4181 O.3       1 ATP        -0.7761
     12 O3A         1.1800   -1.3712   -4.3456 O.3       1 ATP        -0.7114
     13 O5'         2.5245   -1.6648   -2.1878 O.3       1 ATP        -0.5745
     14 C5'         2.2816   -0.2918   -1.9206 C.3       1 ATP         0.1981
     15 C4'         2.7248    0.0226   -0.4980 C.3       1 ATP         0.1050
     16 O4'         2.4697    1.4219   -0.2462 O.3       1 ATP        -0.3841
     17 C3'         1.9404   -0.7419    0.5596 C.3       1 ATP         0.0822
     18 O3'         2.7418   -0.8086    1.7389 O.3       1 ATP        -0.5784
     19 C2'         0.7477    0.1630    0.7858 C.3       1 ATP         0.0580
     20 O2'         0.1373   -0.0577    2.0407 O.3       1 ATP        -0.5710
     21 C1'         1.3733    1.5427    0.6747 C.3       1 ATP         0.4076
     22 N9          0.4520    2.5240    0.1767 N.pl3     1 ATP        -0.4359
     23 C8          0.1798    2.8712   -1.2933 C.ar      1 ATP         0.1755
     24 N7         -0.7494    3.8400   -1.3610 N.2       1 ATP        -0.2905
     25 C5         -1.0173    4.0603   -0.0358 C.ar      1 ATP        -0.1036
     26 C6         -2.0105    5.0717    0.4241 C.ar      1 ATP         0.4096
     27 N6         -2.6723    5.7982   -0.4628 N.pl3     1 ATP        -0.8318
     28 N1         -2.1445    5.1522    1.7502 N.pl3     1 ATP        -0.7165
     29 C2         -1.3755    4.3143    2.6427 C.ar      1 ATP         0.6120
     30 N3         -0.5075    3.4292    2.2616 N.ar      1 ATP        -0.5097
     31 C4         -0.3667    3.3425    0.9070 C.ar      1 ATP         0.2352
     32 HOB2       -0.4997    0.2901   -6.8777 H         1 ATP         0.4987
     33 HOA2       -0.5731   -3.0809   -2.8891 H         1 ATP         0.4629
     34 H5'1        2.8432    0.3119   -2.6398 H         1 ATP         0.0490
     35 H5'2        1.2128   -0.0927   -2.0428 H         1 ATP         0.0490
     36 H4'         3.8040   -0.1399   -0.4044 H         1 ATP         0.1109
     37 H3'         1.6768   -1.7637    0.2732 H         1 ATP         0.0811
     38 HO3'        2.2231   -1.2979    2.3952 H         1 ATP         0.4115
     39 H2'         0.0002   -0.0084   -0.0014 H         1 ATP         0.0694
     40 HO2'       -0.6132    0.5577    2.1063 H         1 ATP         0.4114
     41 H1'         1.7718    1.9211    1.6015 H         1 ATP         0.1324
     42 H8          0.6089    2.4651   -2.2147 H         1 ATP         0.2428
     43 HN61       -2.5055    5.6680   -1.4503 H         1 ATP         0.4700
     44 HN62       -3.3462    6.4841   -0.1542 H         1 ATP         0.4700
     45 H2         -1.5932    4.4937    3.7066 H         1 ATP         0.0755
     46 H46        -2.8098    5.8270    2.1160 H         1 ATP         0.4610
@<TRIPOS>BOND
     1    1    2 2
     2    1    3 1
     3    1    4 1
     4    1    8 1
     5    5    6 2
     6    5    7 1
     7    5    8 1
     8    5   12 1
     9    7   32 1
    10    9   10 2
    11    9   11 1
    12    9   12 1
    13    9   13 1
    14   11   33 1
    15   13   14 1
    16   14   15 1
    17   14   34 1
    18   14   35 1
    19   15   16 1
    20   15   17 1
    21   15   36 1
    22   16   21 1
    23   17   18 1
    24   17   19 1
    25   17   37 1
    26   18   38 1
    27   19   20 1
    28   19   21 1
    29   19   39 1
    30   20   40 1
    31   21   22 1
    32   21   41 1
    33   22   23 ar
    34   22   31 ar
    35   23   24 ar
    36   23   42 1
    37   24   25 ar
    38   25   26 ar
    39   25   31 ar
    40   26   27 1
    41   26   28 ar
    42   27   43 1
    43   27   44 1
    44   28   29 ar
    45   28   46 1
    46   29   30 ar
    47   29   45 1
    48   30   31 ar
@<TRIPOS>SUBSTRUCTURE
     1 ATP         1 GROUP 0 A     ****
@<TRIPOS>MOLECULE
[[[5-(6-amino-1,8-dihydropurine-6,8-diylium-7-id-9-yl)-3,4-dihydroxy-tetrahydrofuran-2-yl]methoxy-hydroxy-phosphoryl]oxy-hydroxy-phosphoryl] phosphate
   46    48     1     0     0
SMALL
USER_CHARGES

@<TRIPOS>ATOM
      1 PG          2.3559   -3.1429   -7.4921 P.3       1 ATP         1.3273
      2 O1G         2.4785   -2.1920   -8.6781 O.co2     1 ATP        -0.8181
      3 O2G         1.5564   -4.4090   -7.7812 O.co2     1 ATP        -0.8181
      4 O3G         3.6641   -3.3856   -6.7465 O.co2     1 ATP        -0.8181
      5 PB          1.6781   -0.8945   -5.6767 P.3       1 ATP         1.7707
      6 O1B         1.8173    0.2751   -6.6058 O.2       1 ATP        -0.8474
      7 O2B         0.4512   -0.7936   -4.6292 O.3       1 ATP        -0.8078
      8 O3B         1.4318   -2.3168   -6.4061 O.3       1 ATP        -0.7032
      9 PA          3.9518   -0.1774   -3.9524 P.3       1 ATP         1.7252
     10 O1A         4.6811    0.7849   -4.8444 O.2       1 ATP        -0.8058
     11 O2A         4.9141   -1.1782   -3.1219 O.3       1 ATP        -0.7761
     12 O3A         2.9599   -1.1838   -4.7374 O.3       1 ATP        -0.7114
     13 O5'         3.0213    0.5153   -2.8245 O.3       1 ATP        -0.5745
     14 C5'         2.2816   -0.2918   -1.9206 C.3       1 ATP         0.1981
     15 C4'         2.7248    0.0226   -0.4980 C.3       1 ATP         0.1050
     16 O4'         2.4697    1.4219   -0.2462 O.3       1 ATP        -0.3841
     17 C3'         1.9404   -0.7419    0.5596 C.3       1 ATP         0.0822
     18 O3'         2.7418   -0.8086    1.7389 O.3       1 ATP        -0.5784
     19 C2'         0.7477    0.1630    0.7858 C.3       1 ATP         0.0580
     20 O2'         0.1373   -0.0577    2.0407 O.3       1 ATP        -0.5710
     21 C1'         1.3733    1.5427    0.6747 C.3       1 ATP         0.4076
     22 N9          0.4520    2.5240    0.1767 N.pl3     1 ATP        -0.4359
     23 C8          0.1798    2.8712   -1.2933 C.ar      1 ATP         0.1755
     24 N7         -0.7494    3.8400   -1.3610 N.2       1 ATP        -0.2905
     25 C5         -1.0173    4.0603   -0.0358 C.ar      1 ATP        -0.1036
     26 C6         -2.0105    5.0717    0.4241 C.ar      1 ATP         0.4096
     27 N6         -2.6723    5.7982   -0.4628 N.pl3     1 ATP        -0.8318
     28 N1         -2.1445    5.1522    1.7502 N.pl3     1 ATP        -0.7165
     29 C2         -1.3755    4.3143    2.6427 C.ar      1 ATP         0.6120
     30 N3         -0.5075    3.4292    2.2616 N.ar      1 ATP        -0.5097
     31 C4         -0.3667    3.3425    0.9070 C.ar      1 ATP         0.2352
     32 HOB2       -0.4635   -0.7185   -4.9754 H         1 ATP         0.4987
     33 HOA2        5.5722   -0.7980   -2.5020 H         1 ATP         0.4629
     34 H5'1        1.2163   -0.0770   -2.0471 H         1 ATP         0.0490
     35 H5'2        2.4655   -1.3443   -2.1563 H         1 ATP         0.0490
     36 H4'         3.8040   -0.1399   -0.4044 H         1 ATP         0.1109
     37 H3'         1.6768   -1.7637    0.2732 H         1 ATP         0.0811
     38 HO3'        3.5553   -1.2733    1.4913 H         1 ATP         0.4115
     39 H2'         0.0002   -0.0084   -0.0014 H         1 ATP         0.0694
     40 HO2'       -0.1554   -0.9852    2.0577 H         1 ATP         0.4114
     41 H1'         1.7718    1.9211    1.6015 H         1 ATP         0.1324
     42 H8          0.6089    2.4651   -2.2147 H         1 ATP         0.2428
     43 HN61       -2.5055    5.6680   -1.4503 H         1 ATP         0.4700
     44 HN62       -3.3462    6.4841   -0.1542 H         1 ATP         0.4700
     45 H2         -1.5932    4.4937    3.7066 H         1 ATP         0.0755
     46 H46        -2.8098    5.8270    2.1160 H         1 ATP         0.4610
@<TRIPOS>BOND
     1    1    2 2
     2    1    3 1
     3    1    4 1
     4    1    8 1
     5    5    6 2
     6    5    7 1
     7    5    8 1
     8    5   12 1
     9    7   32 1
    10    9   10 2
    11    9   11 1
    12    9   12 1
    13    9   13 1
    14   11   33 1
    15   13   14 1
    16   14   15 1
    17   14   34 1
    18   14   35 1
    19   15   16 1
    20   15   17 1
    21   15   36 1
    22   16   21 1
    23   17   18 1
    24   17   19 1
    25   17   37 1
    26   18   38 1
    27   19   20 1
    28   19   21 1
    29   19   39 1
    30   20   40 1
    31   21   22 1
    32   21   41 1
    33   22   23 ar
    34   22   31 ar
    35   23   24 ar
    36   23   42 1
    37   24   25 ar
    38   25   26 ar
    39   25   31 ar
    40   26   27 1
    41   26   28 ar
    42   27   43 1
    43   27   44 1
    44   28   29 ar
    45   28   46 1
    46   29   30 ar
    47   29   45 1
    48   30   31 ar
@<TRIPOS>SUBSTRUCTURE
     1 ATP         1 GROUP 0 A     ****
@<TRIPOS>MOLECULE
[[[5-(6-amino-1,8-dihydropurine-6,8-diylium-7-id-9-yl)-3,4-dihydroxy-tetrahydrofuran-2-yl]methoxy-hydroxy-phosphoryl]oxy-hydroxy-phosphoryl] phosphate
   46    48     1     0     0
SMALL
USER_CHARGES

@<TRIPOS>ATOM
      1 PG          6.9045   -0.5961   -6.3490 P.3       1 ATP         1.3273
      2 O1G         7.5967   -0.0535   -5.1031 O.co2     1 ATP        -0.8181
      3 O2G         6.6868    0.4385   -7.4482 O.co2     1 ATP        -0.8181
      4 O3G         7.4597   -1.9275   -6.8440 O.co2     1 ATP        -0.8181
      5 PB          4.8791   -1.9972   -4.6923 P.3       1 ATP         1.7707
      6 O1B         5.2699   -3.4288   -4.9130 O.2       1 ATP        -0.8474
      7 O2B         5.4366   -1.3390   -3.3253 O.3       1 ATP        -0.8078
      8 O3B         5.3840   -0.9705   -5.8354 O.3       1 ATP        -0.7032
      9 PA          2.1491   -2.2865   -3.6337 P.3       1 ATP         1.7252
     10 O1A         2.0015   -3.7802   -3.6572 O.2       1 ATP        -0.8058
     11 O2A         0.8240   -1.4774   -4.0883 O.3       1 ATP        -0.7761
     12 O3A         3.2891   -1.7195   -4.6296 O.3       1 ATP        -0.7114
     13 O5'         2.5245   -1.6648   -2.1878 O.3       1 ATP        -0.5745
     14 C5'         2.2816   -0.2918   -1.9206 C.3       1 ATP         0.1981
     15 C4'         2.7248    0.0226   -0.4980 C.3       1 ATP         0.1050
     16 O4'         2.4697    1.4219   -0.2462 O.3       1 ATP        -0.3841
     17 C3'         1.9404   -0.7419    0.5596 C.3       1 ATP         0.0822
     18 O3'         2.7418   -0.8086    1.7389 O.3       1 ATP        -0.5784
     19 C2'         0.7477    0.1630    0.7858 C.3       1 ATP         0.0580
     20 O2'         0.1373   -0.0577    2.0407 O.3       1 ATP        -0.5710
     21 C1'         1.3733    1.5427    0.6747 C.3       1 ATP         0.4076
     22 N9          0.4520    2.5240    0.1767 N.pl3     1 ATP        -0.4359
     23 C8          0.1798    2.8712   -1.2933 C.ar      1 ATP         0.1755
     24 N7         -0.7494    3.8400   -1.3610 N.2       1 ATP        -0.2905
     25 C5         -1.0173    4.0603   -0.0358 C.ar      1 ATP        -0.1036
     26 C6         -2.0105    5.0717    0.4241 C.ar      1 ATP         0.4096
     27 N6         -2.6723    5.7982   -0.4628 N.pl3     1 ATP        -0.8318
     28 N1         -2.1445    5.1522    1.7502 N.pl3     1 ATP        -0.7165
     29 C2         -1.3755    4.3143    2.6427 C.ar      1 ATP         0.6120
     30 N3         -0.5075    3.4292    2.2616 N.ar      1 ATP        -0.5097
     31 C4         -0.3667    3.3425    0.9070 C.ar      1 ATP         0.2352
     32 HOB2        5.1797   -1.7386   -2.4670 H         1 ATP         0.4987
     33 HOA2       -0.0049   -1.5996   -3.5784 H         1 ATP         0.4629
     34 H5'1        2.8432    0.3119   -2.6398 H         1 ATP         0.0490
     35 H5'2        1.2128   -0.0927   -2.0428 H         1 ATP         0.0490
     36 H4'         3.8040   -0.1399   -0.4044 H         1 ATP         0.1109
     37 H3'         1.6768   -1.7637    0.2732 H         1 ATP         0.0811
     38 HO3'        2.2231   -1.2979    2.3952 H         1 ATP         0.4115
     39 H2'         0.0002   -0.0084   -0.0014 H         1 ATP         0.0694
     40 HO2'       -0.6132    0.5577    2.1063 H         1 ATP         0.4114
     41 H1'         1.7718    1.9211    1.6015 H         1 ATP         0.1324
     42 H8          0.6089    2.4651   -2.2147 H         1 ATP         0.2428
     43 HN61       -2.5055    5.6680   -1.4503 H         1 ATP         0.4700
     44 HN62       -3.3462    6.4841   -0.1542 H         1 ATP         0.4700
     45 H2         -1.5932    4.4937    3.7066 H         1 ATP         0.0755
     46 H46        -2.8098    5.8270    2.1160 H         1 ATP         0.4610
@<TRIPOS>BOND
     1    1    2 2
     2    1    3 1
     3    1    4 1
     4    1    8 1
     5    5    6 2
     6    5    7 1
     7    5    8 1
     8    5   12 1
     9    7   32 1
    10    9   10 2
    11    9   11 1
    12    9   12 1
    13    9   13 1
    14   11   33 1
    15   13   14 1
    16   14   15 1
    17   14   34 1
    18   14   35 1
    19   15   16 1
    20   15   17 1
    21   15   36 1
    22   16   21 1
    23   17   18 1
    24   17   19 1
    25   17   37 1
    26   18   38 1
    27   19   20 1
    28   19   21 1
    29   19   39 1
    30   20   40 1
    31   21   22 1
    32   21   41 1
    33   22   23 ar
    34   22   31 ar
    35   23   24 ar
    36   23   42 1
    37   24   25 ar
    38   25   26 ar
    39   25   31 ar
    40   26   27 1
    41   26   28 ar
    42   27   43 1
    43   27   44 1
    44   28   29 ar
    45   28   46 1
    46   29   30 ar
    47   29   45 1
    48   30   31 ar
@<TRIPOS>SUBSTRUCTURE
     1 ATP         1 GROUP 0 A     ****
@<TRIPOS>MOLECULE
[[[5-(6-amino-1,8-dihydropurine-6,8-diylium-7-id-9-yl)-3,4-dihydroxy-tetrahydrofuran-2-yl]methoxy-hydroxy-phosphoryl]oxy-hydroxy-phosphoryl] phosphate
   46    48     1     0     0
SMALL
USER_CHARGES

@<TRIPOS>ATOM
      1 PG         -1.3947   -2.1711   -4.2615 P.3       1 ATP         1.3273
      2 O1G        -0.9976   -3.3299   -5.1701 O.co2     1 ATP        -0.8181
      3 O2G        -2.8864   -2.0965   -3.9531 O.co2     1 ATP        -0.8181
      4 O3G        -0.4943   -1.9938   -3.0433 O.co2     1 ATP        -0.8181
      5 PB          0.2718   -0.2833   -5.8329 P.3       1 ATP         1.7707
      6 O1B         0.9083   -1.2170   -6.8197 O.2       1 ATP        -0.8474
      7 O2B        -0.1482    1.1593   -6.4290 O.3       1 ATP        -0.8078
      8 O3B        -1.0987   -0.8273   -5.1683 O.3       1 ATP        -0.7032
      9 PA          2.7601    0.3948   -4.4167 P.3       1 ATP         1.7252
     10 O1A         3.2218    1.5752   -5.2211 O.2       1 ATP        -0.8058
     11 O2A         3.4500   -1.0079   -4.8332 O.3       1 ATP        -0.7761
     12 O3A         1.1793    0.0835   -4.5480 O.3       1 ATP        -0.7114
     13 O5'         3.0213    0.5153   -2.8245 O.3       1 ATP        -0.5745
     14 C5'         2.2816   -0.2918   -1.9206 C.3       1 ATP         0.1981
     15 C4'         2.7248    0.0226   -0.4980 C.3       1 ATP         0.1050
     16 O4'         2.4697    1.4219   -0.2462 O.3       1 ATP        -0.3841
     17 C3'         1.9404   -0.7419    0.5596 C.3       1 ATP         0.0822
     18 O3'         2.7418   -0.8086    1.7389 O.3       1 ATP        -0.5784
     19 C2'         0.7477    0.1630    0.7858 C.3       1 ATP         0.0580
     20 O2'         0.1373   -0.0577    2.0407 O.3       1 ATP        -0.5710
     21 C1'         1.3733    1.5427    0.6747 C.3       1 ATP         0.4076
     22 N9          0.4520    2.5240    0.1767 N.pl3     1 ATP        -0.4359
     23 C8         -0.3054    2.4845   -1.1576 C.ar      1 ATP         0.1755
     24 N7         -1.0755    3.5806   -1.2691 N.2       1 ATP        -0.2905
     25 C5         -0.8043    4.2306   -0.0942 C.ar      1 ATP        -0.1036
     26 C6         -1.4324    5.5335    0.2646 C.ar      1 ATP         0.4096
     27 N6         -2.2885    6.1054   -0.5675 N.pl3     1 ATP        -0.8318
     28 N1         -1.0537    6.0229    1.4478 N.pl3     1 ATP        -0.7165
     29 C2         -0.1096    5.3242    2.2908 C.ar      1 ATP         0.6120
     30 N3          0.4468    4.1904    1.9960 N.ar      1 ATP        -0.5097
     31 C4          0.0631    3.6855    0.7877 C.ar      1 ATP         0.2352
     32 HOB2        0.5474    1.7355   -6.8115 H         1 ATP         0.4987
     33 HOA2        3.3358   -1.3394   -5.7492 H         1 ATP         0.4629
     34 H5'1        1.2163   -0.0770   -2.0471 H         1 ATP         0.0490
     35 H5'2        2.4655   -1.3443   -2.1563 H         1 ATP         0.0490
     36 H4'         3.8040   -0.1399   -0.4044 H         1 ATP         0.1109
     37 H3'         1.6768   -1.7637    0.2732 H         1 ATP         0.0811
     38 HO3'        2.2231   -1.2979    2.3952 H         1 ATP         0.4115
     39 H2'         0.0002   -0.0084   -0.0014 H         1 ATP         0.0694
     40 HO2'       -0.6132    0.5577    2.1063 H         1 ATP         0.4114
     41 H1'         1.7718    1.9211    1.6015 H         1 ATP         0.1324
     42 H8         -0.2991    1.7413   -1.9611 H         1 ATP         0.2428
     43 HN61       -2.5167    5.6603   -1.4447 H         1 ATP         0.4700
     44 HN62       -2.7159    6.9882   -0.3270 H         1 ATP         0.4700
     45 H2          0.1059    5.8491    3.2340 H         1 ATP         0.0755
     46 H46        -1.4532    6.9099    1.7401 H         1 ATP         0.4610
@<TRIPOS>BOND
     1    1    2 2
     2    1    3 1
     3    1    4 1
     4    1    8 1
     5    5    6 2
     6    5    7 1
     7    5    8 1
     8    5   12 1
     9    7   32 1
    10    9   10 2
    11    9   11 1
    12    9   12 1
    13    9   13 1
    14   11   33 1
    15   13   14 1
    16   14   15 1
    17   14   34 1
    18   14   35 1
    19   15   16 1
    20   15   17 1
    21   15   36 1
    22   16   21 1
    23   17   18 1
    24   17   19 1
    25   17   37 1
    26   18   38 1
    27   19   20 1
    28   19   21 1
    29   19   39 1
    30   20   40 1
    31   21   22 1
    32   21   41 1
    33   22   23 ar
    34   22   31 ar
    35   23   24 ar
    36   23   42 1
    37   24   25 ar
    38   25   26 ar
    39   25   31 ar
    40   26   27 1
    41   26   28 ar
    42   27   43 1
    43   27   44 1
    44   28   29 ar
    45   28   46 1
    46   29   30 ar
    47   29   45 1
    48   30   31 ar
@<TRIPOS>SUBSTRUCTURE
     1 ATP         1 GROUP 0 A     ****
@<TRIPOS>MOLECULE
[[[5-(6-amino-1,8-dihydropurine-6,8-diylium-7-id-9-yl)-3,4-dihydroxy-tetrahydrofuran-2-yl]methoxy-hydroxy-phosphoryl]oxy-hydroxy-phosphoryl] phosphate
   46    48     1     0     0
SMALL
USER_CHARGES

@<TRIPOS>ATOM
      1 PG         -2.1809    0.6722   -6.3397 P.3       1 ATP         1.3273
      2 O1G        -3.3403    1.1275   -5.4596 O.co2     1 ATP        -0.8181
      3 O2G        -2.1756   -0.8210   -6.6497 O.co2     1 ATP        -0.8181
      4 O3G        -1.9266    1.5636   -7.5508 O.co2     1 ATP        -0.8181
      5 PB         -0.2500    2.2371   -4.7172 P.3       1 ATP         1.7707
      6 O1B         0.1186    3.3251   -5.6821 O.2       1 ATP        -0.8474
      7 O2B        -1.3778    2.6392   -3.6312 O.3       1 ATP        -0.8078
      8 O3B        -0.8470    0.8974   -5.3986 O.3       1 ATP        -0.7032
      9 PA          2.3606    0.9705   -4.2295 P.3       1 ATP         1.7252
     10 O1A         3.2451    1.8209   -5.0944 O.2       1 ATP        -0.8058
     11 O2A         1.8849   -0.4138   -4.9183 O.3       1 ATP        -0.7761
     12 O3A         0.9666    1.6760   -3.8148 O.3       1 ATP        -0.7114
     13 O5'         3.0213    0.5153   -2.8245 O.3       1 ATP        -0.5745
     14 C5'         2.2816   -0.2918   -1.9206 C.3       1 ATP         0.1981
     15 C4'         2.7248    0.0226   -0.4980 C.3       1 ATP         0.1050
     16 O4'         2.4697    1.4219   -0.2462 O.3       1 ATP        -0.3841
     17 C3'         1.9404   -0.7419    0.5596 C.3       1 ATP         0.0822
     18 O3'         2.7418   -0.8086    1.7389 O.3       1 ATP        -0.5784
     19 C2'         0.7477    0.1630    0.7858 C.3       1 ATP         0.0580
     20 O2'         0.1373   -0.0577    2.0407 O.3       1 ATP        -0.5710
     21 C1'         1.3733    1.5427    0.6747 C.3       1 ATP         0.4076
     22 N9          0.4520    2.5240    0.1767 N.pl3     1 ATP        -0.4359
     23 C8          0.5793    3.3338   -1.1209 C.ar      1 ATP         0.1755
     24 N7         -0.4807    4.1508   -1.2458 N.2       1 ATP        -0.2905
     25 C5         -1.1921    3.8572   -0.1126 C.ar      1 ATP        -0.1036
     26 C6         -2.4855    4.5203    0.2163 C.ar      1 ATP         0.4096
     27 N6         -2.9873    5.4319   -0.6020 N.pl3     1 ATP        -0.8318
     28 N1         -3.0414    4.1119    1.3596 N.pl3     1 ATP        -0.7165
     29 C2         -2.4169    3.1071    2.1904 C.ar      1 ATP         0.6120
     30 N3         -1.2928    2.5191    1.9210 N.ar      1 ATP        -0.5097
     31 C4         -0.7202    2.9326    0.7534 C.ar      1 ATP         0.2352
     32 HOB2       -2.2634    2.9179   -3.9478 H         1 ATP         0.4987
     33 HOA2        2.5650   -1.0623   -5.1991 H         1 ATP         0.4629
     34 H5'1        1.2163   -0.0770   -2.0471 H         1 ATP         0.0490
     35 H5'2        2.4655   -1.3443   -2.1563 H         1 ATP         0.0490
     36 H4'         3.8040   -0.1399   -0.4044 H         1 ATP         0.1109
     37 H3'         1.6768   -1.7637    0.2732 H         1 ATP         0.0811
     38 HO3'        2.2231   -1.2979    2.3952 H         1 ATP         0.4115
     39 H2'         0.0002   -0.0084   -0.0014 H         1 ATP         0.0694
     40 HO2'       -0.1554   -0.9852    2.0577 H         1 ATP         0.4114
     41 H1'         1.7718    1.9211    1.6015 H         1 ATP         0.1324
     42 H8          1.3565    3.3309   -1.8916 H         1 ATP         0.2428
     43 HN61       -2.4952    5.6785   -1.4487 H         1 ATP         0.4700
     44 HN62       -3.8637    5.8828   -0.3819 H         1 ATP         0.4700
     45 H2         -2.9911    2.8734    3.1000 H         1 ATP         0.0755
     46 H46        -3.9253    4.5332    1.6302 H         1 ATP         0.4610
@<TRIPOS>BOND
     1    1    2 2
     2    1    3 1
     3    1    4 1
     4    1    8 1
     5    5    6 2
     6    5    7 1
     7    5    8 1
     8    5   12 1
     9    7   32 1
    10    9   10 2
    11    9   11 1
    12    9   12 1
    13    9   13 1
    14   11   33 1
    15   13   14 1
    16   14   15 1
    17   14   34 1
    18   14   35 1
    19   15   16 1
    20   15   17 1
    21   15   36 1
    22   16   21 1
    23   17   18 1
    24   17   19 1
    25   17   37 1
    26   18   38 1
    27   19   20 1
    28   19   21 1
    29   19   39 1
    30   20   40 1
    31   21   22 1
    32   21   41 1
    33   22   23 ar
    34   22   31 ar
    35   23   24 ar
    36   23   42 1
    37   24   25 ar
    38   25   26 ar
    39   25   31 ar
    40   26   27 1
    41   26   28 ar
    42   27   43 1
    43   27   44 1
    44   28   29 ar
    45   28   46 1
    46   29   30 ar
    47   29   45 1
    48   30   31 ar
@<TRIPOS>SUBSTRUCTURE
     1 ATP         1 GROUP 0 A     ****
@<TRIPOS>MOLECULE
[[[5-(6-amino-1,8-dihydropurine-6,8-diylium-7-id-9-yl)-3,4-dihydroxy-tetrahydrofuran-2-yl]methoxy-hydroxy-phosphoryl]oxy-hydroxy-phosphoryl] phosphate
   46    48     1     0     0
SMALL
USER_CHARGES

@<TRIPOS>ATOM
      1 PG         -0.6954   -2.4445   -6.7105 P.3       1 ATP         1.3273
      2 O1G        -1.6050   -1.4062   -6.0620 O.co2     1 ATP        -0.8181
      3 O2G        -1.1444   -3.8879   -6.5083 O.co2     1 ATP        -0.8181
      4 O3G        -0.2857   -2.1114   -8.1414 O.co2     1 ATP        -0.8181
      5 PB          1.7204   -1.0866   -5.6474 P.3       1 ATP         1.7707
      6 O1B         2.3143   -0.5311   -6.9081 O.2       1 ATP        -0.8474
      7 O2B         0.8408   -0.0389   -4.7862 O.3       1 ATP        -0.8078
      8 O3B         0.7130   -2.3335   -5.8622 O.3       1 ATP        -0.7032
      9 PA          4.0068   -0.9375   -3.8015 P.3       1 ATP         1.7252
     10 O1A         5.0551   -0.3602   -4.7078 O.2       1 ATP        -0.8058
     11 O2A         4.5475   -2.0921   -2.8057 O.3       1 ATP        -0.7761
     12 O3A         2.7870   -1.6597   -4.5783 O.3       1 ATP        -0.7114
     13 O5'         3.2903    0.1346   -2.8241 O.3       1 ATP        -0.5745
     14 C5'         2.2816   -0.2918   -1.9206 C.3       1 ATP         0.1981
     15 C4'         2.7248    0.0226   -0.4980 C.3       1 ATP         0.1050
     16 O4'         2.4697    1.4219   -0.2462 O.3       1 ATP        -0.3841
     17 C3'         1.9404   -0.7419    0.5596 C.3       1 ATP         0.0822
     18 O3'         2.7418   -0.8086    1.7389 O.3       1 ATP        -0.5784
     19 C2'         0.7477    0.1630    0.7858 C.3       1 ATP         0.0580
     20 O2'         0.1373   -0.0577    2.0407 O.3       1 ATP        -0.5710
     21 C1'         1.3733    1.5427    0.6747 C.3       1 ATP         0.4076
     22 N9          0.4520    2.5240    0.1767 N.pl3     1 ATP        -0.4359
     23 C8          0.1798    2.8712   -1.2933 C.ar      1 ATP         0.1755
     24 N7         -0.7494    3.8400   -1.3610 N.2       1 ATP        -0.2905
     25 C5         -1.0173    4.0603   -0.0358 C.ar      1 ATP        -0.1036
     26 C6         -2.0105    5.0717    0.4241 C.ar      1 ATP         0.4096
     27 N6         -2.6723    5.7982   -0.4628 N.pl3     1 ATP        -0.8318
     28 N1         -2.1445    5.1522    1.7502 N.pl3     1 ATP        -0.7165
     29 C2         -1.3755    4.3143    2.6427 C.ar      1 ATP         0.6120
     30 N3         -0.5075    3.4292    2.2616 N.ar      1 ATP        -0.5097
     31 C4         -0.3667    3.3425    0.9070 C.ar      1 ATP         0.2352
     32 HOB2        1.2699    0.7761   -4.4489 H         1 ATP         0.4987
     33 HOA2        5.2586   -1.8729   -2.1667 H         1 ATP         0.4629
     34 H5'1        1.3514    0.2330   -2.1577 H         1 ATP         0.0490
     35 H5'2        2.1280   -1.3678   -2.0460 H         1 ATP         0.0490
     36 H4'         3.8040   -0.1399   -0.4044 H         1 ATP         0.1109
     37 H3'         1.6768   -1.7637    0.2732 H         1 ATP         0.0811
     38 HO3'        3.5553   -1.2733    1.4913 H         1 ATP         0.4115
     39 H2'         0.0002   -0.0084   -0.0014 H         1 ATP         0.0694
     40 HO2'       -0.1554   -0.9852    2.0577 H         1 ATP         0.4114
     41 H1'         1.7718    1.9211    1.6015 H         1 ATP         0.1324
     42 H8          0.6089    2.4651   -2.2147 H         1 ATP         0.2428
     43 HN61       -2.5055    5.6680   -1.4503 H         1 ATP         0.4700
     44 HN62       -3.3462    6.4841   -0.1542 H         1 ATP         0.4700
     45 H2         -1.5932    4.4937    3.7066 H         1 ATP         0.0755
     46 H46        -2.8098    5.8270    2.1160 H         1 ATP         0.4610
@<TRIPOS>BOND
     1    1    2 2
     2    1    3 1
     3    1    4 1
     4    1    8 1
     5    5    6 2
     6    5    7 1
     7    5    8 1
     8    5   12 1
     9    7   32 1
    10    9   10 2
    11    9   11 1
    12    9   12 1
    13    9   13 1
    14   11   33 1
    15   13   14 1
    16   14   15 1
    17   14   34 1
    18   14   35 1
    19   15   16 1
    20   15   17 1
    21   15   36 1
    22   16   21 1
    23   17   18 1
    24   17   19 1
    25   17   37 1
    26   18   38 1
    27   19   20 1
    28   19   21 1
    29   19   39 1
    30   20   40 1
    31   21   22 1
    32   21   41 1
    33   22   23 ar
    34   22   31 ar
    35   23   24 ar
    36   23   42 1
    37   24   25 ar
    38   25   26 ar
    39   25   31 ar
    40   26   27 1
    41   26   28 ar
    42   27   43 1
    43   27   44 1
    44   28   29 ar
    45   28   46 1
    46   29   30 ar
    47   29   45 1
    48   30   31 ar
@<TRIPOS>SUBSTRUCTURE
     1 ATP         1 GROUP 0 A     ****
@<TRIPOS>MOLECULE
[[[5-(6-amino-1,8-dihydropurine-6,8-diylium-7-id-9-yl)-3,4-dihydroxy-tetrahydrofuran-2-yl]methoxy-hydroxy-phosphoryl]oxy-hydroxy-phosphoryl] phosphate
   46    48     1     0     0
SMALL
USER_CHARGES

@<TRIPOS>ATOM
      1 PG          3.4409   -3.2989   -7.3288 P.3       1 ATP         1.3273
      2 O1G         2.0595   -3.3374   -6.6836 O.co2     1 ATP        -0.8181
      3 O2G         4.0009   -4.6687   -7.6976 O.co2     1 ATP        -0.8181
      4 O3G         3.5923   -2.2461   -8.4219 O.co2     1 ATP        -0.8181
      5 PB          4.4161   -1.3863   -5.2792 P.3       1 ATP         1.7707
      6 O1B         5.5034   -1.2638   -4.2528 O.2       1 ATP        -0.8474
      7 O2B         4.4225   -0.2432   -6.4221 O.3       1 ATP        -0.8078
      8 O3B         4.4332   -2.7635   -6.1269 O.3       1 ATP        -0.7032
      9 PA          2.1491   -2.2865   -3.6337 P.3       1 ATP         1.7252
     10 O1A         2.4550   -3.7479   -3.7889 O.2       1 ATP        -0.8058
     11 O2A         0.5912   -1.9045   -3.8443 O.3       1 ATP        -0.7761
     12 O3A         2.9105   -1.3357   -4.6964 O.3       1 ATP        -0.7114
     13 O5'         2.5245   -1.6648   -2.1878 O.3       1 ATP        -0.5745
     14 C5'         2.2816   -0.2918   -1.9206 C.3       1 ATP         0.1981
     15 C4'         2.7248    0.0226   -0.4980 C.3       1 ATP         0.1050
     16 O4'         2.4697    1.4219   -0.2462 O.3       1 ATP        -0.3841
     17 C3'         1.9404   -0.7419    0.5596 C.3       1 ATP         0.0822
     18 O3'         2.7418   -0.8086    1.7389 O.3       1 ATP        -0.5784
     19 C2'         0.7477    0.1630    0.7858 C.3       1 ATP         0.0580
     20 O2'         0.1373   -0.0577    2.0407 O.3       1 ATP        -0.5710
     21 C1'         1.3733    1.5427    0.6747 C.3       1 ATP         0.4076
     22 N9          0.4520    2.5240    0.1767 N.pl3     1 ATP        -0.4359
     23 C8          0.1798    2.8712   -1.2933 C.ar      1 ATP         0.1755
     24 N7         -0.7494    3.8400   -1.3610 N.2       1 ATP        -0.2905
     25 C5         -1.0173    4.0603   -0.0358 C.ar      1 ATP        -0.1036
     26 C6         -2.0105    5.0717    0.4241 C.ar      1 ATP         0.4096
     27 N6         -2.6723    5.7982   -0.4628 N.pl3     1 ATP        -0.8318
     28 N1         -2.1445    5.1522    1.7502 N.pl3     1 ATP        -0.7165
     29 C2         -1.3755    4.3143    2.6427 C.ar      1 ATP         0.6120
     30 N3         -0.5075    3.4292    2.2616 N.ar      1 ATP        -0.5097
     31 C4         -0.3667    3.3425    0.9070 C.ar      1 ATP         0.2352
     32 HOB2        5.2128   -0.1499   -6.9955 H         1 ATP         0.4987
     33 HOA2       -0.0803   -2.3081   -3.2542 H         1 ATP         0.4629
     34 H5'1        2.8432    0.3119   -2.6398 H         1 ATP         0.0490
     35 H5'2        1.2128   -0.0927   -2.0428 H         1 ATP         0.0490
     36 H4'         3.8040   -0.1399   -0.4044 H         1 ATP         0.1109
     37 H3'         1.6768   -1.7637    0.2732 H         1 ATP         0.0811
     38 HO3'        2.2231   -1.2979    2.3952 H         1 ATP         0.4115
     39 H2'         0.0002   -0.0084   -0.0014 H         1 ATP         0.0694
     40 HO2'       -0.6132    0.5577    2.1063 H         1 ATP         0.4114
     41 H1'         1.7718    1.9211    1.6015 H         1 ATP         0.1324
     42 H8          0.6089    2.4651   -2.2147 H         1 ATP         0.2428
     43 HN61       -2.5055    5.6680   -1.4503 H         1 ATP         0.4700
     44 HN62       -3.3462    6.4841   -0.1542 H         1 ATP         0.4700
     45 H2         -1.5932    4.4937    3.7066 H         1 ATP         0.0755
     46 H46        -2.8098    5.8270    2.1160 H         1 ATP         0.4610
@<TRIPOS>BOND
     1    1    2 2
     2    1    3 1
     3    1    4 1
     4    1    8 1
     5    5    6 2
     6    5    7 1
     7    5    8 1
     8    5   12 1
     9    7   32 1
    10    9   10 2
    11    9   11 1
    12    9   12 1
    13    9   13 1
    14   11   33 1
    15   13   14 1
    16   14   15 1
    17   14   34 1
    18   14   35 1
    19   15   16 1
    20   15   17 1
    21   15   36 1
    22   16   21 1
    23   17   18 1
    24   17   19 1
    25   17   37 1
    26   18   38 1
    27   19   20 1
    28   19   21 1
    29   19   39 1
    30   20   40 1
    31   21   22 1
    32   21   41 1
    33   22   23 ar
    34   22   31 ar
    35   23   24 ar
    36   23   42 1
    37   24   25 ar
    38   25   26 ar
    39   25   31 ar
    40   26   27 1
    41   26   28 ar
    42   27   43 1
    43   27   44 1
    44   28   29 ar
    45   28   46 1
    46   29   30 ar
    47   29   45 1
    48   30   31 ar
@<TRIPOS>SUBSTRUCTURE
     1 ATP         1 GROUP 0 A     ****
@<TRIPOS>MOLECULE
[[[5-(6-amino-1,8-dihydropurine-6,8-diylium-7-id-9-yl)-3,4-dihydroxy-tetrahydrofuran-2-yl]methoxy-hydroxy-phosphoryl]oxy-hydroxy-phosphoryl] phosphate
   46    48     1     0     0
SMALL
USER_CHARGES

@<TRIPOS>ATOM
      1 PG          8.8307    0.0317   -3.0993 P.3       1 ATP         1.3273
      2 O1G         9.5318   -1.3170   -3.2248 O.co2     1 ATP        -0.8181
      3 O2G         9.1524    0.7905   -1.8161 O.co2     1 ATP        -0.8181
      4 O3G         8.8857    0.8857   -4.3617 O.co2     1 ATP        -0.8181
      5 PB          6.2491   -1.1580   -3.9538 P.3       1 ATP         1.7707
      6 O1B         6.0838   -0.5385   -5.3101 O.2       1 ATP        -0.8474
      7 O2B         6.8572   -2.6557   -3.9555 O.3       1 ATP        -0.8078
      8 O3B         7.2352   -0.3546   -2.9549 O.3       1 ATP        -0.7032
      9 PA          3.5157   -2.0914   -3.3934 P.3       1 ATP         1.7252
     10 O1A         3.6883   -3.5720   -3.5721 O.2       1 ATP        -0.8058
     11 O2A         2.9244   -1.3270   -4.6908 O.3       1 ATP        -0.7761
     12 O3A         4.8910   -1.2978   -3.0907 O.3       1 ATP        -0.7114
     13 O5'         2.5245   -1.6648   -2.1878 O.3       1 ATP        -0.5745
     14 C5'         2.2816   -0.2918   -1.9206 C.3       1 ATP         0.1981
     15 C4'         2.7248    0.0226   -0.4980 C.3       1 ATP         0.1050
     16 O4'         2.4697    1.4219   -0.2462 O.3       1 ATP        -0.3841
     17 C3'         1.9404   -0.7419    0.5596 C.3       1 ATP         0.0822
     18 O3'         2.7418   -0.8086    1.7389 O.3       1 ATP        -0.5784
     19 C2'         0.7477    0.1630    0.7858 C.3       1 ATP         0.0580
     20 O2'         0.1373   -0.0577    2.0407 O.3       1 ATP        -0.5710
     21 C1'         1.3733    1.5427    0.6747 C.3       1 ATP         0.4076
     22 N9          0.4520    2.5240    0.1767 N.pl3     1 ATP        -0.4359
     23 C8          0.1798    2.8712   -1.2933 C.ar      1 ATP         0.1755
     24 N7         -0.7494    3.8400   -1.3610 N.2       1 ATP        -0.2905
     25 C5         -1.0173    4.0603   -0.0358 C.ar      1 ATP        -0.1036
     26 C6         -2.0105    5.0717    0.4241 C.ar      1 ATP         0.4096
     27 N6         -2.6723    5.7982   -0.4628 N.pl3     1 ATP        -0.8318
     28 N1         -2.1445    5.1522    1.7502 N.pl3     1 ATP        -0.7165
     29 C2         -1.3755    4.3143    2.6427 C.ar      1 ATP         0.6120
     30 N3         -0.5075    3.4292    2.2616 N.ar      1 ATP        -0.5097
     31 C4         -0.3667    3.3425    0.9070 C.ar      1 ATP         0.2352
     32 HOB2        7.7466   -2.8064   -4.3408 H         1 ATP         0.4987
     33 HOA2        3.4254   -1.3648   -5.5331 H         1 ATP         0.4629
     34 H5'1        2.8432    0.3119   -2.6398 H         1 ATP         0.0490
     35 H5'2        1.2128   -0.0927   -2.0428 H         1 ATP         0.0490
     36 H4'         3.8040   -0.1399   -0.4044 H         1 ATP         0.1109
     37 H3'         1.6768   -1.7637    0.2732 H         1 ATP         0.0811
     38 HO3'        2.2231   -1.2979    2.3952 H         1 ATP         0.4115
     39 H2'         0.0002   -0.0084   -0.0014 H         1 ATP         0.0694
     40 HO2'       -0.6132    0.5577    2.1063 H         1 ATP         0.4114
     41 H1'         1.7718    1.9211    1.6015 H         1 ATP         0.1324
     42 H8          0.6089    2.4651   -2.2147 H         1 ATP         0.2428
     43 HN61       -3.3458    6.4845   -0.1543 H         1 ATP         0.4700
     44 HN62       -2.5050    5.6683   -1.4502 H         1 ATP         0.4700
     45 H2         -1.5932    4.4937    3.7066 H         1 ATP         0.0755
     46 H46        -2.8098    5.8270    2.1160 H         1 ATP         0.4610
@<TRIPOS>BOND
     1    1    2 2
     2    1    3 1
     3    1    4 1
     4    1    8 1
     5    5    6 2
     6    5    7 1
     7    5    8 1
     8    5   12 1
     9    7   32 1
    10    9   10 2
    11    9   11 1
    12    9   12 1
    13    9   13 1
    14   11   33 1
    15   13   14 1
    16   14   15 1
    17   14   34 1
    18   14   35 1
    19   15   16 1
    20   15   17 1
    21   15   36 1
    22   16   21 1
    23   17   18 1
    24   17   19 1
    25   17   37 1
    26   18   38 1
    27   19   20 1
    28   19   21 1
    29   19   39 1
    30   20   40 1
    31   21   22 1
    32   21   41 1
    33   22   23 ar
    34   22   31 ar
    35   23   24 ar
    36   23   42 1
    37   24   25 ar
    38   25   26 ar
    39   25   31 ar
    40   26   27 1
    41   26   28 ar
    42   27   43 1
    43   27   44 1
    44   28   29 ar
    45   28   46 1
    46   29   30 ar
    47   29   45 1
    48   30   31 ar
@<TRIPOS>SUBSTRUCTURE
     1 ATP         1 GROUP 0 A     ****
@<TRIPOS>MOLECULE
[[[5-(6-amino-1,8-dihydropurine-6,8-diylium-7-id-9-yl)-3,4-dihydroxy-tetrahydrofuran-2-yl]methoxy-hydroxy-phosphoryl]oxy-hydroxy-phosphoryl] phosphate
   46    48     1     0     0
SMALL
USER_CHARGES

@<TRIPOS>ATOM
      1 PG          7.1649   -4.7192   -3.5670 P.3       1 ATP         1.3273
      2 O1G         8.3464   -4.0474   -4.2589 O.co2     1 ATP        -0.8181
      3 O2G         6.6758   -5.9913   -4.2514 O.co2     1 ATP        -0.8181
      4 O3G         7.3115   -4.8397   -2.0537 O.co2     1 ATP        -0.8181
      5 PB          5.7708   -2.1150   -3.2768 P.3       1 ATP         1.7707
      6 O1B         5.8598   -1.9066   -1.7938 O.2       1 ATP        -0.8474
      7 O2B         6.8905   -1.3369   -4.1451 O.3       1 ATP        -0.8078
      8 O3B         5.9245   -3.6513   -3.7582 O.3       1 ATP        -0.7032
      9 PA          2.8586   -2.1490   -3.6951 P.3       1 ATP         1.7252
     10 O1A         2.6342   -3.6112   -3.9506 O.2       1 ATP        -0.8058
     11 O2A         1.9858   -1.1651   -4.6371 O.3       1 ATP        -0.7761
     12 O3A         4.3770   -1.6586   -3.9537 O.3       1 ATP        -0.7114
     13 O5'         2.5245   -1.6648   -2.1878 O.3       1 ATP        -0.5745
     14 C5'         2.2816   -0.2918   -1.9206 C.3       1 ATP         0.1981
     15 C4'         2.7248    0.0226   -0.4980 C.3       1 ATP         0.1050
     16 O4'         2.4697    1.4219   -0.2462 O.3       1 ATP        -0.3841
     17 C3'         1.9404   -0.7419    0.5596 C.3       1 ATP         0.0822
     18 O3'         2.7418   -0.8086    1.7389 O.3       1 ATP        -0.5784
     19 C2'         0.7477    0.1630    0.7858 C.3       1 ATP         0.0580
     20 O2'         0.1373   -0.0577    2.0407 O.3       1 ATP        -0.5710
     21 C1'         1.3733    1.5427    0.6747 C.3       1 ATP         0.4076
     22 N9          0.4520    2.5240    0.1767 N.pl3     1 ATP        -0.4359
     23 C8          0.1798    2.8712   -1.2933 C.ar      1 ATP         0.1755
     24 N7         -0.7494    3.8400   -1.3610 N.2       1 ATP        -0.2905
     25 C5         -1.0173    4.0603   -0.0358 C.ar      1 ATP        -0.1036
     26 C6         -2.0105    5.0717    0.4241 C.ar      1 ATP         0.4096
     27 N6         -2.6723    5.7982   -0.4628 N.pl3     1 ATP        -0.8318
     28 N1         -2.1445    5.1522    1.7502 N.pl3     1 ATP        -0.7165
     29 C2         -1.3755    4.3143    2.6427 C.ar      1 ATP         0.6120
     30 N3         -0.5075    3.4292    2.2616 N.ar      1 ATP        -0.5097
     31 C4         -0.3667    3.3425    0.9070 C.ar      1 ATP         0.2352
     32 HOB2        7.8377   -1.5342   -3.9839 H         1 ATP         0.4987
     33 HOA2        2.1018   -1.2133   -5.6098 H         1 ATP         0.4629
     34 H5'1        2.8432    0.3119   -2.6398 H         1 ATP         0.0490
     35 H5'2        1.2128   -0.0927   -2.0428 H         1 ATP         0.0490
     36 H4'         3.8040   -0.1399   -0.4044 H         1 ATP         0.1109
     37 H3'         1.6768   -1.7637    0.2732 H         1 ATP         0.0811
     38 HO3'        2.2231   -1.2979    2.3952 H         1 ATP         0.4115
     39 H2'         0.0002   -0.0084   -0.0014 H         1 ATP         0.0694
     40 HO2'       -0.6132    0.5577    2.1063 H         1 ATP         0.4114
     41 H1'         1.7718    1.9211    1.6015 H         1 ATP         0.1324
     42 H8          0.6089    2.4651   -2.2147 H         1 ATP         0.2428
     43 HN61       -2.5055    5.6680   -1.4503 H         1 ATP         0.4700
     44 HN62       -3.3462    6.4841   -0.1542 H         1 ATP         0.4700
     45 H2         -1.5932    4.4937    3.7066 H         1 ATP         0.0755
     46 H46        -2.8098    5.8270    2.1160 H         1 ATP         0.4610
@<TRIPOS>BOND
     1    1    2 2
     2    1    3 1
     3    1    4 1
     4    1    8 1
     5    5    6 2
     6    5    7 1
     7    5    8 1
     8    5   12 1
     9    7   32 1
    10    9   10 2
    11    9   11 1
    12    9   12 1
    13    9   13 1
    14   11   33 1
    15   13   14 1
    16   14   15 1
    17   14   34 1
    18   14   35 1
    19   15   16 1
    20   15   17 1
    21   15   36 1
    22   16   21 1
    23   17   18 1
    24   17   19 1
    25   17   37 1
    26   18   38 1
    27   19   20 1
    28   19   21 1
    29   19   39 1
    30   20   40 1
    31   21   22 1
    32   21   41 1
    33   22   23 ar
    34   22   31 ar
    35   23   24 ar
    36   23   42 1
    37   24   25 ar
    38   25   26 ar
    39   25   31 ar
    40   26   27 1
    41   26   28 ar
    42   27   43 1
    43   27   44 1
    44   28   29 ar
    45   28   46 1
    46   29   30 ar
    47   29   45 1
    48   30   31 ar
@<TRIPOS>SUBSTRUCTURE
     1 ATP         1 GROUP 0 A     ****
@<TRIPOS>MOLECULE
[[[5-(6-amino-1,8-dihydropurine-6,8-diylium-7-id-9-yl)-3,4-dihydroxy-tetrahydrofuran-2-yl]methoxy-hydroxy-phosphoryl]oxy-hydroxy-phosphoryl] phosphate
   46    48     1     0     0
SMALL
USER_CHARGES

@<TRIPOS>ATOM
      1 PG          2.5877    0.4951   -7.7095 P.3       1 ATP         1.3273
      2 O1G         1.3785   -0.1555   -8.3732 O.co2     1 ATP        -0.8181
      3 O2G         3.5105    1.2357   -8.6718 O.co2     1 ATP        -0.8181
      4 O3G         2.2623    1.2678   -6.4354 O.co2     1 ATP        -0.8181
      5 PB          3.1316   -1.9651   -6.1407 P.3       1 ATP         1.7707
      6 O1B         1.9678   -2.8229   -6.5414 O.2       1 ATP        -0.8474
      7 O2B         4.5342   -2.7507   -5.9720 O.3       1 ATP        -0.8078
      8 O3B         3.4900   -0.7774   -7.1782 O.3       1 ATP        -0.7032
      9 PA          3.9518   -0.1774   -3.9524 P.3       1 ATP         1.7252
     10 O1A         4.6811    0.7849   -4.8444 O.2       1 ATP        -0.8058
     11 O2A         4.9141   -1.1782   -3.1219 O.3       1 ATP        -0.7761
     12 O3A         2.9599   -1.1838   -4.7374 O.3       1 ATP        -0.7114
     13 O5'         3.0213    0.5153   -2.8245 O.3       1 ATP        -0.5745
     14 C5'         2.2816   -0.2918   -1.9206 C.3       1 ATP         0.1981
     15 C4'         2.7248    0.0226   -0.4980 C.3       1 ATP         0.1050
     16 O4'         2.4697    1.4219   -0.2462 O.3       1 ATP        -0.3841
     17 C3'         1.9404   -0.7419    0.5596 C.3       1 ATP         0.0822
     18 O3'         2.7418   -0.8086    1.7389 O.3       1 ATP        -0.5784
     19 C2'         0.7477    0.1630    0.7858 C.3       1 ATP         0.0580
     20 O2'         0.1373   -0.0577    2.0407 O.3       1 ATP        -0.5710
     21 C1'         1.3733    1.5427    0.6747 C.3       1 ATP         0.4076
     22 N9          0.4520    2.5240    0.1767 N.pl3     1 ATP        -0.4359
     23 C8          0.1798    2.8712   -1.2933 C.ar      1 ATP         0.1755
     24 N7         -0.7494    3.8400   -1.3610 N.2       1 ATP        -0.2905
     25 C5         -1.0173    4.0603   -0.0358 C.ar      1 ATP        -0.1036
     26 C6         -2.0105    5.0717    0.4241 C.ar      1 ATP         0.4096
     27 N6         -2.6723    5.7982   -0.4628 N.pl3     1 ATP        -0.8318
     28 N1         -2.1445    5.1522    1.7502 N.pl3     1 ATP        -0.7165
     29 C2         -1.3755    4.3143    2.6427 C.ar      1 ATP         0.6120
     30 N3         -0.5075    3.4292    2.2616 N.ar      1 ATP        -0.5097
     31 C4         -0.3667    3.3425    0.9070 C.ar      1 ATP         0.2352
     32 HOB2        4.5969   -3.4734   -5.3117 H         1 ATP         0.4987
     33 HOA2        5.5722   -0.7980   -2.5020 H         1 ATP         0.4629
     34 H5'1        1.2163   -0.0770   -2.0471 H         1 ATP         0.0490
     35 H5'2        2.4655   -1.3443   -2.1563 H         1 ATP         0.0490
     36 H4'         3.8040   -0.1399   -0.4044 H         1 ATP         0.1109
     37 H3'         1.6768   -1.7637    0.2732 H         1 ATP         0.0811
     38 HO3'        2.2231   -1.2979    2.3952 H         1 ATP         0.4115
     39 H2'         0.0002   -0.0084   -0.0014 H         1 ATP         0.0694
     40 HO2'       -0.6132    0.5577    2.1063 H         1 ATP         0.4114
     41 H1'         1.7718    1.9211    1.6015 H         1 ATP         0.1324
     42 H8          0.6089    2.4651   -2.2147 H         1 ATP         0.2428
     43 HN61       -2.5055    5.6680   -1.4503 H         1 ATP         0.4700
     44 HN62       -3.3462    6.4841   -0.1542 H         1 ATP         0.4700
     45 H2         -1.5932    4.4937    3.7066 H         1 ATP         0.0755
     46 H46        -2.8098    5.8270    2.1160 H         1 ATP         0.4610
@<TRIPOS>BOND
     1    1    2 2
     2    1    3 1
     3    1    4 1
     4    1    8 1
     5    5    6 2
     6    5    7 1
     7    5    8 1
     8    5   12 1
     9    7   32 1
    10    9   10 2
    11    9   11 1
    12    9   12 1
    13    9   13 1
    14   11   33 1
    15   13   14 1
    16   14   15 1
    17   14   34 1
    18   14   35 1
    19   15   16 1
    20   15   17 1
    21   15   36 1
    22   16   21 1
    23   17   18 1
    24   17   19 1
    25   17   37 1
    26   18   38 1
    27   19   20 1
    28   19   21 1
    29   19   39 1
    30   20   40 1
    31   21   22 1
    32   21   41 1
    33   22   23 ar
    34   22   31 ar
    35   23   24 ar
    36   23   42 1
    37   24   25 ar
    38   25   26 ar
    39   25   31 ar
    40   26   27 1
    41   26   28 ar
    42   27   43 1
    43   27   44 1
    44   28   29 ar
    45   28   46 1
    46   29   30 ar
    47   29   45 1
    48   30   31 ar
@<TRIPOS>SUBSTRUCTURE
     1 ATP         1 GROUP 0 A     ****
@<TRIPOS>MOLECULE
[[[5-(6-amino-1,8-dihydropurine-6,8-diylium-7-id-9-yl)-3,4-dihydroxy-tetrahydrofuran-2-yl]methoxy-hydroxy-phosphoryl]oxy-hydroxy-phosphoryl] phosphate
   46    48     1     0     0
SMALL
USER_CHARGES

@<TRIPOS>ATOM
      1 PG          1.8304   -2.9313   -7.5486 P.3       1 ATP         1.3273
      2 O1G         1.3748   -2.0173   -8.6813 O.co2     1 ATP        -0.8181
      3 O2G         1.8061   -4.4172   -7.8912 O.co2     1 ATP        -0.8181
      4 O3G         3.1044   -2.4717   -6.8473 O.co2     1 ATP        -0.8181
      5 PB          0.1582   -1.4502   -5.5941 P.3       1 ATP         1.7707
      6 O1B         0.0607   -0.2019   -6.4205 O.2       1 ATP        -0.8474
      7 O2B        -1.2296   -1.9359   -4.9224 O.3       1 ATP        -0.8078
      8 O3B         0.6639   -2.7597   -6.3972 O.3       1 ATP        -0.7032
      9 PA          1.5773   -2.4670   -3.2257 P.3       1 ATP         1.7252
     10 O1A         2.1787   -3.7242   -3.7837 O.2       1 ATP        -0.8058
     11 O2A         0.1934   -2.6903   -2.4181 O.3       1 ATP        -0.7761
     12 O3A         1.1800   -1.3712   -4.3456 O.3       1 ATP        -0.7114
     13 O5'         2.5245   -1.6648   -2.1878 O.3       1 ATP        -0.5745
     14 C5'         2.2816   -0.2918   -1.9206 C.3       1 ATP         0.1981
     15 C4'         2.7248    0.0226   -0.4980 C.3       1 ATP         0.1050
     16 O4'         2.4697    1.4219   -0.2462 O.3       1 ATP        -0.3841
     17 C3'         1.9404   -0.7419    0.5596 C.3       1 ATP         0.0822
     18 O3'         2.7418   -0.8086    1.7389 O.3       1 ATP        -0.5784
     19 C2'         0.7477    0.1630    0.7858 C.3       1 ATP         0.0580
     20 O2'         0.1373   -0.0577    2.0407 O.3       1 ATP        -0.5710
     21 C1'         1.3733    1.5427    0.6747 C.3       1 ATP         0.4076
     22 N9          0.4520    2.5240    0.1767 N.pl3     1 ATP        -0.4359
     23 C8          0.1798    2.8712   -1.2933 C.ar      1 ATP         0.1755
     24 N7         -0.7494    3.8400   -1.3610 N.2       1 ATP        -0.2905
     25 C5         -1.0173    4.0603   -0.0358 C.ar      1 ATP        -0.1036
     26 C6         -2.0105    5.0717    0.4241 C.ar      1 ATP         0.4096
     27 N6         -2.6723    5.7982   -0.4628 N.pl3     1 ATP        -0.8318
     28 N1         -2.1445    5.1522    1.7502 N.pl3     1 ATP        -0.7165
     29 C2         -1.3755    4.3143    2.6427 C.ar      1 ATP         0.6120
     30 N3         -0.5075    3.4292    2.2616 N.ar      1 ATP        -0.5097
     31 C4         -0.3667    3.3425    0.9070 C.ar      1 ATP         0.2352
     32 HOB2       -1.6920   -1.3343   -4.3007 H         1 ATP         0.4987
     33 HOA2       -0.5731   -3.0809   -2.8891 H         1 ATP         0.4629
     34 H5'1        2.8432    0.3119   -2.6398 H         1 ATP         0.0490
     35 H5'2        1.2128   -0.0927   -2.0428 H         1 ATP         0.0490
     36 H4'         3.8040   -0.1399   -0.4044 H         1 ATP         0.1109
     37 H3'         1.6768   -1.7637    0.2732 H         1 ATP         0.0811
     38 HO3'        2.2231   -1.2979    2.3952 H         1 ATP         0.4115
     39 H2'         0.0002   -0.0084   -0.0014 H         1 ATP         0.0694
     40 HO2'       -0.6132    0.5577    2.1063 H         1 ATP         0.4114
     41 H1'         1.7718    1.9211    1.6015 H         1 ATP         0.1324
     42 H8          0.6089    2.4651   -2.2147 H         1 ATP         0.2428
     43 HN61       -2.5055    5.6680   -1.4503 H         1 ATP         0.4700
     44 HN62       -3.3462    6.4841   -0.1542 H         1 ATP         0.4700
     45 H2         -1.5932    4.4937    3.7066 H         1 ATP         0.0755
     46 H46        -2.8098    5.8270    2.1160 H         1 ATP         0.4610
@<TRIPOS>BOND
     1    1    2 2
     2    1    3 1
     3    1    4 1
     4    1    8 1
     5    5    6 2
     6    5    7 1
     7    5    8 1
     8    5   12 1
     9    7   32 1
    10    9   10 2
    11    9   11 1
    12    9   12 1
    13    9   13 1
    14   11   33 1
    15   13   14 1
    16   14   15 1
    17   14   34 1
    18   14   35 1
    19   15   16 1
    20   15   17 1
    21   15   36 1
    22   16   21 1
    23   17   18 1
    24   17   19 1
    25   17   37 1
    26   18   38 1
    27   19   20 1
    28   19   21 1
    29   19   39 1
    30   20   40 1
    31   21   22 1
    32   21   41 1
    33   22   23 ar
    34   22   31 ar
    35   23   24 ar
    36   23   42 1
    37   24   25 ar
    38   25   26 ar
    39   25   31 ar
    40   26   27 1
    41   26   28 ar
    42   27   43 1
    43   27   44 1
    44   28   29 ar
    45   28   46 1
    46   29   30 ar
    47   29   45 1
    48   30   31 ar
@<TRIPOS>SUBSTRUCTURE
     1 ATP         1 GROUP 0 A     ****
@<TRIPOS>MOLECULE
[[[5-(6-amino-1,8-dihydropurine-6,8-diylium-7-id-9-yl)-3,4-dihydroxy-tetrahydrofuran-2-yl]methoxy-hydroxy-phosphoryl]oxy-hydroxy-phosphoryl] phosphate
   46    48     1     0     0
SMALL
USER_CHARGES

@<TRIPOS>ATOM
      1 PG          6.5176   -0.0703   -6.7024 P.3       1 ATP         1.3273
      2 O1G         7.8148    0.6401   -6.3304 O.co2     1 ATP        -0.8181
      3 O2G         5.5328    0.7895   -7.4879 O.co2     1 ATP        -0.8181
      4 O3G         6.7120   -1.4735   -7.2675 O.co2     1 ATP        -0.8181
      5 PB          6.2491   -1.1580   -3.9538 P.3       1 ATP         1.7707
      6 O1B         6.9532   -2.4488   -4.2516 O.2       1 ATP        -0.8474
      7 O2B         7.1207   -0.0793   -3.1233 O.3       1 ATP        -0.8078
      8 O3B         5.7697   -0.3286   -5.2568 O.3       1 ATP        -0.7032
      9 PA          3.5157   -2.0914   -3.3934 P.3       1 ATP         1.7252
     10 O1A         3.6883   -3.5720   -3.5721 O.2       1 ATP        -0.8058
     11 O2A         2.9244   -1.3270   -4.6908 O.3       1 ATP        -0.7761
     12 O3A         4.8910   -1.2978   -3.0907 O.3       1 ATP        -0.7114
     13 O5'         2.5245   -1.6648   -2.1878 O.3       1 ATP        -0.5745
     14 C5'         2.2816   -0.2918   -1.9206 C.3       1 ATP         0.1981
     15 C4'         2.7248    0.0226   -0.4980 C.3       1 ATP         0.1050
     16 O4'         2.4697    1.4219   -0.2462 O.3       1 ATP        -0.3841
     17 C3'         1.9404   -0.7419    0.5596 C.3       1 ATP         0.0822
     18 O3'         2.7418   -0.8086    1.7389 O.3       1 ATP        -0.5784
     19 C2'         0.7477    0.1630    0.7858 C.3       1 ATP         0.0580
     20 O2'         0.1373   -0.0577    2.0407 O.3       1 ATP        -0.5710
     21 C1'         1.3733    1.5427    0.6747 C.3       1 ATP         0.4076
     22 N9          0.4520    2.5240    0.1767 N.pl3     1 ATP        -0.4359
     23 C8          0.1798    2.8712   -1.2933 C.ar      1 ATP         0.1755
     24 N7         -0.7494    3.8400   -1.3610 N.2       1 ATP        -0.2905
     25 C5         -1.0173    4.0603   -0.0358 C.ar      1 ATP        -0.1036
     26 C6         -2.0105    5.0717    0.4241 C.ar      1 ATP         0.4096
     27 N6         -2.6723    5.7982   -0.4628 N.pl3     1 ATP        -0.8318
     28 N1         -2.1445    5.1522    1.7502 N.pl3     1 ATP        -0.7165
     29 C2         -1.3755    4.3143    2.6427 C.ar      1 ATP         0.6120
     30 N3         -0.5075    3.4292    2.2616 N.ar      1 ATP        -0.5097
     31 C4         -0.3667    3.3425    0.9070 C.ar      1 ATP         0.2352
     32 HOB2        7.9611    0.2492   -3.5082 H         1 ATP         0.4987
     33 HOA2        3.4254   -1.3648   -5.5331 H         1 ATP         0.4629
     34 H5'1        2.8432    0.3119   -2.6398 H         1 ATP         0.0490
     35 H5'2        1.2128   -0.0927   -2.0428 H         1 ATP         0.0490
     36 H4'         3.8040   -0.1399   -0.4044 H         1 ATP         0.1109
     37 H3'         1.6768   -1.7637    0.2732 H         1 ATP         0.0811
     38 HO3'        2.2231   -1.2979    2.3952 H         1 ATP         0.4115
     39 H2'         0.0002   -0.0084   -0.0014 H         1 ATP         0.0694
     40 HO2'       -0.6132    0.5577    2.1063 H         1 ATP         0.4114
     41 H1'         1.7718    1.9211    1.6015 H         1 ATP         0.1324
     42 H8          0.6089    2.4651   -2.2147 H         1 ATP         0.2428
     43 HN61       -3.3458    6.4845   -0.1543 H         1 ATP         0.4700
     44 HN62       -2.5050    5.6683   -1.4502 H         1 ATP         0.4700
     45 H2         -1.5932    4.4937    3.7066 H         1 ATP         0.0755
     46 H46        -2.8098    5.8270    2.1160 H         1 ATP         0.4610
@<TRIPOS>BOND
     1    1    2 2
     2    1    3 1
     3    1    4 1
     4    1    8 1
     5    5    6 2
     6    5    7 1
     7    5    8 1
     8    5   12 1
     9    7   32 1
    10    9   10 2
    11    9   11 1
    12    9   12 1
    13    9   13 1
    14   11   33 1
    15   13   14 1
    16   14   15 1
    17   14   34 1
    18   14   35 1
    19   15   16 1
    20   15   17 1
    21   15   36 1
    22   16   21 1
    23   17   18 1
    24   17   19 1
    25   17   37 1
    26   18   38 1
    27   19   20 1
    28   19   21 1
    29   19   39 1
    30   20   40 1
    31   21   22 1
    32   21   41 1
    33   22   23 ar
    34   22   31 ar
    35   23   24 ar
    36   23   42 1
    37   24   25 ar
    38   25   26 ar
    39   25   31 ar
    40   26   27 1
    41   26   28 ar
    42   27   43 1
    43   27   44 1
    44   28   29 ar
    45   28   46 1
    46   29   30 ar
    47   29   45 1
    48   30   31 ar
@<TRIPOS>SUBSTRUCTURE
     1 ATP         1 GROUP 0 A     ****
@<TRIPOS>MOLECULE
[[[5-(6-amino-1,8-dihydropurine-6,8-diylium-7-id-9-yl)-3,4-dihydroxy-tetrahydrofuran-2-yl]methoxy-hydroxy-phosphoryl]oxy-hydroxy-phosphoryl] phosphate
   46    48     1     0     0
SMALL
USER_CHARGES

@<TRIPOS>ATOM
      1 PG         -0.2511    2.3553   -7.6563 P.3       1 ATP         1.3273
      2 O1G        -1.2536    3.4664   -7.3623 O.co2     1 ATP        -0.8181
      3 O2G        -0.8787    1.0579   -8.1551 O.co2     1 ATP        -0.8181
      4 O3G         0.9685    2.8071   -8.4530 O.co2     1 ATP        -0.8181
      5 PB          1.1651    2.8680   -5.0986 P.3       1 ATP         1.7707
      6 O1B         2.1630    3.8211   -5.6872 O.2       1 ATP        -0.8474
      7 O2B        -0.0173    3.5595   -4.2403 O.3       1 ATP        -0.8078
      8 O3B         0.3663    1.9672   -6.1785 O.3       1 ATP        -0.7032
      9 PA          2.8894    0.6160   -4.3158 P.3       1 ATP         1.7252
     10 O1A         4.0467    1.0418   -5.1719 O.2       1 ATP        -0.8058
     11 O2A         2.0300   -0.6147   -4.9191 O.3       1 ATP        -0.7761
     12 O3A         1.7778    1.7672   -4.0877 O.3       1 ATP        -0.7114
     13 O5'         3.2903    0.1346   -2.8241 O.3       1 ATP        -0.5745
     14 C5'         2.2816   -0.2918   -1.9206 C.3       1 ATP         0.1981
     15 C4'         2.7248    0.0226   -0.4980 C.3       1 ATP         0.1050
     16 O4'         2.4697    1.4219   -0.2462 O.3       1 ATP        -0.3841
     17 C3'         1.9404   -0.7419    0.5596 C.3       1 ATP         0.0822
     18 O3'         2.7418   -0.8086    1.7389 O.3       1 ATP        -0.5784
     19 C2'         0.7477    0.1630    0.7858 C.3       1 ATP         0.0580
     20 O2'         0.1373   -0.0577    2.0407 O.3       1 ATP        -0.5710
     21 C1'         1.3733    1.5427    0.6747 C.3       1 ATP         0.4076
     22 N9          0.4520    2.5240    0.1767 N.pl3     1 ATP        -0.4359
     23 C8         -0.3054    2.4845   -1.1576 C.ar      1 ATP         0.1755
     24 N7         -1.0755    3.5806   -1.2691 N.2       1 ATP        -0.2905
     25 C5         -0.8043    4.2306   -0.0942 C.ar      1 ATP        -0.1036
     26 C6         -1.4324    5.5335    0.2646 C.ar      1 ATP         0.4096
     27 N6         -2.2885    6.1054   -0.5675 N.pl3     1 ATP        -0.8318
     28 N1         -1.0537    6.0229    1.4478 N.pl3     1 ATP        -0.7165
     29 C2         -0.1096    5.3242    2.2908 C.ar      1 ATP         0.6120
     30 N3          0.4468    4.1904    1.9960 N.ar      1 ATP        -0.5097
     31 C4          0.0631    3.6855    0.7877 C.ar      1 ATP         0.2352
     32 HOB2        0.2186    4.0948   -3.4529 H         1 ATP         0.4987
     33 HOA2        1.5975   -0.5082   -5.7929 H         1 ATP         0.4629
     34 H5'1        1.3514    0.2330   -2.1577 H         1 ATP         0.0490
     35 H5'2        2.1280   -1.3678   -2.0460 H         1 ATP         0.0490
     36 H4'         3.8040   -0.1399   -0.4044 H         1 ATP         0.1109
     37 H3'         1.6768   -1.7637    0.2732 H         1 ATP         0.0811
     38 HO3'        2.2231   -1.2979    2.3952 H         1 ATP         0.4115
     39 H2'         0.0002   -0.0084   -0.0014 H         1 ATP         0.0694
     40 HO2'       -0.1554   -0.9852    2.0577 H         1 ATP         0.4114
     41 H1'         1.7718    1.9211    1.6015 H         1 ATP         0.1324
     42 H8         -0.2991    1.7413   -1.9611 H         1 ATP         0.2428
     43 HN61       -2.5167    5.6603   -1.4447 H         1 ATP         0.4700
     44 HN62       -2.7159    6.9882   -0.3270 H         1 ATP         0.4700
     45 H2          0.1059    5.8491    3.2340 H         1 ATP         0.0755
     46 H46        -1.4532    6.9099    1.7401 H         1 ATP         0.4610
@<TRIPOS>BOND
     1    1    2 2
     2    1    3 1
     3    1    4 1
     4    1    8 1
     5    5    6 2
     6    5    7 1
     7    5    8 1
     8    5   12 1
     9    7   32 1
    10    9   10 2
    11    9   11 1
    12    9   12 1
    13    9   13 1
    14   11   33 1
    15   13   14 1
    16   14   15 1
    17   14   34 1
    18   14   35 1
    19   15   16 1
    20   15   17 1
    21   15   36 1
    22   16   21 1
    23   17   18 1
    24   17   19 1
    25   17   37 1
    26   18   38 1
    27   19   20 1
    28   19   21 1
    29   19   39 1
    30   20   40 1
    31   21   22 1
    32   21   41 1
    33   22   23 ar
    34   22   31 ar
    35   23   24 ar
    36   23   42 1
    37   24   25 ar
    38   25   26 ar
    39   25   31 ar
    40   26   27 1
    41   26   28 ar
    42   27   43 1
    43   27   44 1
    44   28   29 ar
    45   28   46 1
    46   29   30 ar
    47   29   45 1
    48   30   31 ar
@<TRIPOS>SUBSTRUCTURE
     1 ATP         1 GROUP 0 A     ****
@<TRIPOS>MOLECULE
[[[5-(6-amino-1,8-dihydropurine-6,8-diylium-7-id-9-yl)-3,4-dihydroxy-tetrahydrofuran-2-yl]methoxy-hydroxy-phosphoryl]oxy-hydroxy-phosphoryl] phosphate
   46    48     1     0     0
SMALL
USER_CHARGES

@<TRIPOS>ATOM
      1 PG          1.2699   -3.7965   -7.4954 P.3       1 ATP         1.3273
      2 O1G         1.7454   -3.1218   -8.7778 O.co2     1 ATP        -0.8181
      3 O2G        -0.2461   -3.8494   -7.3377 O.co2     1 ATP        -0.8181
      4 O3G         1.9780   -5.1099   -7.1793 O.co2     1 ATP        -0.8181
      5 PB          3.2509   -2.2809   -5.8866 P.3       1 ATP         1.7707
      6 O1B         4.2023   -3.3746   -5.5002 O.2       1 ATP        -0.8474
      7 O2B         3.7099   -1.3922   -7.1564 O.3       1 ATP        -0.8078
      8 O3B         1.7689   -2.7821   -6.2964 O.3       1 ATP        -0.7032
      9 PA          3.9518   -0.1774   -3.9524 P.3       1 ATP         1.7252
     10 O1A         4.6811    0.7849   -4.8444 O.2       1 ATP        -0.8058
     11 O2A         4.9141   -1.1782   -3.1219 O.3       1 ATP        -0.7761
     12 O3A         2.9599   -1.1838   -4.7374 O.3       1 ATP        -0.7114
     13 O5'         3.0213    0.5153   -2.8245 O.3       1 ATP        -0.5745
     14 C5'         2.2816   -0.2918   -1.9206 C.3       1 ATP         0.1981
     15 C4'         2.7248    0.0226   -0.4980 C.3       1 ATP         0.1050
     16 O4'         2.4697    1.4219   -0.2462 O.3       1 ATP        -0.3841
     17 C3'         1.9404   -0.7419    0.5596 C.3       1 ATP         0.0822
     18 O3'         2.7418   -0.8086    1.7389 O.3       1 ATP        -0.5784
     19 C2'         0.7477    0.1630    0.7858 C.3       1 ATP         0.0580
     20 O2'         0.1373   -0.0577    2.0407 O.3       1 ATP        -0.5710
     21 C1'         1.3733    1.5427    0.6747 C.3       1 ATP         0.4076
     22 N9          0.4520    2.5240    0.1767 N.pl3     1 ATP        -0.4359
     23 C8         -0.3054    2.4845   -1.1576 C.ar      1 ATP         0.1755
     24 N7         -1.0755    3.5806   -1.2691 N.2       1 ATP        -0.2905
     25 C5         -0.8043    4.2306   -0.0942 C.ar      1 ATP        -0.1036
     26 C6         -1.4324    5.5335    0.2646 C.ar      1 ATP         0.4096
     27 N6         -2.2885    6.1054   -0.5675 N.pl3     1 ATP        -0.8318
     28 N1         -1.0537    6.0229    1.4478 N.pl3     1 ATP        -0.7165
     29 C2         -0.1096    5.3242    2.2908 C.ar      1 ATP         0.6120
     30 N3          0.4468    4.1904    1.9960 N.ar      1 ATP        -0.5097
     31 C4          0.0631    3.6855    0.7877 C.ar      1 ATP         0.2352
     32 HOB2        3.8483   -1.8352   -8.0206 H         1 ATP         0.4987
     33 HOA2        5.5722   -0.7980   -2.5020 H         1 ATP         0.4629
     34 H5'1        1.2163   -0.0770   -2.0471 H         1 ATP         0.0490
     35 H5'2        2.4655   -1.3443   -2.1563 H         1 ATP         0.0490
     36 H4'         3.8040   -0.1399   -0.4044 H         1 ATP         0.1109
     37 H3'         1.6768   -1.7637    0.2732 H         1 ATP         0.0811
     38 HO3'        2.2231   -1.2979    2.3952 H         1 ATP         0.4115
     39 H2'         0.0002   -0.0084   -0.0014 H         1 ATP         0.0694
     40 HO2'       -0.1554   -0.9852    2.0577 H         1 ATP         0.4114
     41 H1'         1.7718    1.9211    1.6015 H         1 ATP         0.1324
     42 H8         -0.2991    1.7413   -1.9611 H         1 ATP         0.2428
     43 HN61       -2.5167    5.6603   -1.4447 H         1 ATP         0.4700
     44 HN62       -2.7159    6.9882   -0.3270 H         1 ATP         0.4700
     45 H2          0.1059    5.8491    3.2340 H         1 ATP         0.0755
     46 H46        -1.4532    6.9099    1.7401 H         1 ATP         0.4610
@<TRIPOS>BOND
     1    1    2 2
     2    1    3 1
     3    1    4 1
     4    1    8 1
     5    5    6 2
     6    5    7 1
     7    5    8 1
     8    5   12 1
     9    7   32 1
    10    9   10 2
    11    9   11 1
    12    9   12 1
    13    9   13 1
    14   11   33 1
    15   13   14 1
    16   14   15 1
    17   14   34 1
    18   14   35 1
    19   15   16 1
    20   15   17 1
    21   15   36 1
    22   16   21 1
    23   17   18 1
    24   17   19 1
    25   17   37 1
    26   18   38 1
    27   19   20 1
    28   19   21 1
    29   19   39 1
    30   20   40 1
    31   21   22 1
    32   21   41 1
    33   22   23 ar
    34   22   31 ar
    35   23   24 ar
    36   23   42 1
    37   24   25 ar
    38   25   26 ar
    39   25   31 ar
    40   26   27 1
    41   26   28 ar
    42   27   43 1
    43   27   44 1
    44   28   29 ar
    45   28   46 1
    46   29   30 ar
    47   29   45 1
    48   30   31 ar
@<TRIPOS>SUBSTRUCTURE
     1 ATP         1 GROUP 0 A     ****
@<TRIPOS>MOLECULE
[[[5-(6-amino-1,8-dihydropurine-6,8-diylium-7-id-9-yl)-3,4-dihydroxy-tetrahydrofuran-2-yl]methoxy-hydroxy-phosphoryl]oxy-hydroxy-phosphoryl] phosphate
   46    48     1     0     0
SMALL
USER_CHARGES

@<TRIPOS>ATOM
      1 PG          4.2732   -1.4282   -7.7838 P.3       1 ATP         1.3273
      2 O1G         5.2216   -1.5285   -6.5937 O.co2     1 ATP        -0.8181
      3 O2G         4.7906   -0.5640   -8.9290 O.co2     1 ATP        -0.8181
      4 O3G         3.6793   -2.7618   -8.2253 O.co2     1 ATP        -0.8181
      5 PB          1.9642   -0.9361   -5.9849 P.3       1 ATP         1.7707
      6 O1B         0.8909    0.0862   -5.7530 O.2       1 ATP        -0.8474
      7 O2B         1.4302   -2.4179   -6.3482 O.3       1 ATP        -0.8078
      8 O3B         2.9774   -0.5951   -7.1984 O.3       1 ATP        -0.7032
      9 PA          3.9518   -0.1774   -3.9524 P.3       1 ATP         1.7252
     10 O1A         4.6811    0.7849   -4.8444 O.2       1 ATP        -0.8058
     11 O2A         4.9141   -1.1782   -3.1219 O.3       1 ATP        -0.7761
     12 O3A         2.9599   -1.1838   -4.7374 O.3       1 ATP        -0.7114
     13 O5'         3.0213    0.5153   -2.8245 O.3       1 ATP        -0.5745
     14 C5'         2.2816   -0.2918   -1.9206 C.3       1 ATP         0.1981
     15 C4'         2.7248    0.0226   -0.4980 C.3       1 ATP         0.1050
     16 O4'         2.4697    1.4219   -0.2462 O.3       1 ATP        -0.3841
     17 C3'         1.9404   -0.7419    0.5596 C.3       1 ATP         0.0822
     18 O3'         2.7418   -0.8086    1.7389 O.3       1 ATP        -0.5784
     19 C2'         0.7477    0.1630    0.7858 C.3       1 ATP         0.0580
     20 O2'         0.1373   -0.0577    2.0407 O.3       1 ATP        -0.5710
     21 C1'         1.3733    1.5427    0.6747 C.3       1 ATP         0.4076
     22 N9          0.4520    2.5240    0.1767 N.pl3     1 ATP        -0.4359
     23 C8          0.1798    2.8712   -1.2933 C.ar      1 ATP         0.1755
     24 N7         -0.7494    3.8400   -1.3610 N.2       1 ATP        -0.2905
     25 C5         -1.0173    4.0603   -0.0358 C.ar      1 ATP        -0.1036
     26 C6         -2.0105    5.0717    0.4241 C.ar      1 ATP         0.4096
     27 N6         -2.6723    5.7982   -0.4628 N.pl3     1 ATP        -0.8318
     28 N1         -2.1445    5.1522    1.7502 N.pl3     1 ATP        -0.7165
     29 C2         -1.3755    4.3143    2.6427 C.ar      1 ATP         0.6120
     30 N3         -0.5075    3.4292    2.2616 N.ar      1 ATP        -0.5097
     31 C4         -0.3667    3.3425    0.9070 C.ar      1 ATP         0.2352
     32 HOB2        0.8778   -2.5400   -7.1495 H         1 ATP         0.4987
     33 HOA2        5.5722   -0.7980   -2.5020 H         1 ATP         0.4629
     34 H5'1        1.2163   -0.0770   -2.0471 H         1 ATP         0.0490
     35 H5'2        2.4655   -1.3443   -2.1563 H         1 ATP         0.0490
     36 H4'         3.8040   -0.1399   -0.4044 H         1 ATP         0.1109
     37 H3'         1.6768   -1.7637    0.2732 H         1 ATP         0.0811
     38 HO3'        2.2231   -1.2979    2.3952 H         1 ATP         0.4115
     39 H2'         0.0002   -0.0084   -0.0014 H         1 ATP         0.0694
     40 HO2'       -0.6132    0.5577    2.1063 H         1 ATP         0.4114
     41 H1'         1.7718    1.9211    1.6015 H         1 ATP         0.1324
     42 H8          0.6089    2.4651   -2.2147 H         1 ATP         0.2428
     43 HN61       -2.5055    5.6680   -1.4503 H         1 ATP         0.4700
     44 HN62       -3.3462    6.4841   -0.1542 H         1 ATP         0.4700
     45 H2         -1.5932    4.4937    3.7066 H         1 ATP         0.0755
     46 H46        -2.8098    5.8270    2.1160 H         1 ATP         0.4610
@<TRIPOS>BOND
     1    1    2 2
     2    1    3 1
     3    1    4 1
     4    1    8 1
     5    5    6 2
     6    5    7 1
     7    5    8 1
     8    5   12 1
     9    7   32 1
    10    9   10 2
    11    9   11 1
    12    9   12 1
    13    9   13 1
    14   11   33 1
    15   13   14 1
    16   14   15 1
    17   14   34 1
    18   14   35 1
    19   15   16 1
    20   15   17 1
    21   15   36 1
    22   16   21 1
    23   17   18 1
    24   17   19 1
    25   17   37 1
    26   18   38 1
    27   19   20 1
    28   19   21 1
    29   19   39 1
    30   20   40 1
    31   21   22 1
    32   21   41 1
    33   22   23 ar
    34   22   31 ar
    35   23   24 ar
    36   23   42 1
    37   24   25 ar
    38   25   26 ar
    39   25   31 ar
    40   26   27 1
    41   26   28 ar
    42   27   43 1
    43   27   44 1
    44   28   29 ar
    45   28   46 1
    46   29   30 ar
    47   29   45 1
    48   30   31 ar
@<TRIPOS>SUBSTRUCTURE
     1 ATP         1 GROUP 0 A     ****
@<TRIPOS>MOLECULE
[[[5-(6-amino-1,8-dihydropurine-6,8-diylium-7-id-9-yl)-3,4-dihydroxy-tetrahydrofuran-2-yl]methoxy-hydroxy-phosphoryl]oxy-hydroxy-phosphoryl] phosphate
   46    48     1     0     0
SMALL
USER_CHARGES

@<TRIPOS>ATOM
      1 PG          2.7924    1.3515   -6.8308 P.3       1 ATP         1.3273
      2 O1G         1.6540    1.0315   -7.7940 O.co2     1 ATP        -0.8181
      3 O2G         3.7913    2.3770   -7.3566 O.co2     1 ATP        -0.8181
      4 O3G         2.3463    1.5930   -5.3925 O.co2     1 ATP        -0.8181
      5 PB          3.2152   -1.5324   -6.2704 P.3       1 ATP         1.7707
      6 O1B         2.1003   -2.1448   -7.0658 O.2       1 ATP        -0.8474
      7 O2B         4.6041   -2.3592   -6.2907 O.3       1 ATP        -0.8078
      8 O3B         3.6548   -0.0502   -6.7450 O.3       1 ATP        -0.7032
      9 PA          2.1491   -2.2865   -3.6337 P.3       1 ATP         1.7252
     10 O1A         2.4550   -3.7479   -3.7889 O.2       1 ATP        -0.8058
     11 O2A         0.5912   -1.9045   -3.8443 O.3       1 ATP        -0.7761
     12 O3A         2.9105   -1.3357   -4.6964 O.3       1 ATP        -0.7114
     13 O5'         2.5245   -1.6648   -2.1878 O.3       1 ATP        -0.5745
     14 C5'         2.2816   -0.2918   -1.9206 C.3       1 ATP         0.1981
     15 C4'         2.7248    0.0226   -0.4980 C.3       1 ATP         0.1050
     16 O4'         2.4697    1.4219   -0.2462 O.3       1 ATP        -0.3841
     17 C3'         1.9404   -0.7419    0.5596 C.3       1 ATP         0.0822
     18 O3'         2.7418   -0.8086    1.7389 O.3       1 ATP        -0.5784
     19 C2'         0.7477    0.1630    0.7858 C.3       1 ATP         0.0580
     20 O2'         0.1373   -0.0577    2.0407 O.3       1 ATP        -0.5710
     21 C1'         1.3733    1.5427    0.6747 C.3       1 ATP         0.4076
     22 N9          0.4520    2.5240    0.1767 N.pl3     1 ATP        -0.4359
     23 C8         -0.3054    2.4845   -1.1576 C.ar      1 ATP         0.1755
     24 N7         -1.0755    3.5806   -1.2691 N.2       1 ATP        -0.2905
     25 C5         -0.8043    4.2306   -0.0942 C.ar      1 ATP        -0.1036
     26 C6         -1.4324    5.5335    0.2646 C.ar      1 ATP         0.4096
     27 N6         -2.2885    6.1054   -0.5675 N.pl3     1 ATP        -0.8318
     28 N1         -1.0537    6.0229    1.4478 N.pl3     1 ATP        -0.7165
     29 C2         -0.1096    5.3242    2.2908 C.ar      1 ATP         0.6120
     30 N3          0.4468    4.1904    1.9960 N.ar      1 ATP        -0.5097
     31 C4          0.0631    3.6855    0.7877 C.ar      1 ATP         0.2352
     32 HOB2        5.0502   -2.5164   -7.1500 H         1 ATP         0.4987
     33 HOA2        0.1664   -2.1023   -4.7059 H         1 ATP         0.4629
     34 H5'1        2.8432    0.3119   -2.6398 H         1 ATP         0.0490
     35 H5'2        1.2128   -0.0927   -2.0428 H         1 ATP         0.0490
     36 H4'         3.8040   -0.1399   -0.4044 H         1 ATP         0.1109
     37 H3'         1.6768   -1.7637    0.2732 H         1 ATP         0.0811
     38 HO3'        2.2231   -1.2979    2.3952 H         1 ATP         0.4115
     39 H2'         0.0002   -0.0084   -0.0014 H         1 ATP         0.0694
     40 HO2'       -0.6132    0.5577    2.1063 H         1 ATP         0.4114
     41 H1'         1.7718    1.9211    1.6015 H         1 ATP         0.1324
     42 H8         -0.2991    1.7413   -1.9611 H         1 ATP         0.2428
     43 HN61       -2.5167    5.6603   -1.4447 H         1 ATP         0.4700
     44 HN62       -2.7159    6.9882   -0.3270 H         1 ATP         0.4700
     45 H2          0.1059    5.8491    3.2340 H         1 ATP         0.0755
     46 H46        -1.4532    6.9099    1.7401 H         1 ATP         0.4610
@<TRIPOS>BOND
     1    1    2 2
     2    1    3 1
     3    1    4 1
     4    1    8 1
     5    5    6 2
     6    5    7 1
     7    5    8 1
     8    5   12 1
     9    7   32 1
    10    9   10 2
    11    9   11 1
    12    9   12 1
    13    9   13 1
    14   11   33 1
    15   13   14 1
    16   14   15 1
    17   14   34 1
    18   14   35 1
    19   15   16 1
    20   15   17 1
    21   15   36 1
    22   16   21 1
    23   17   18 1
    24   17   19 1
    25   17   37 1
    26   18   38 1
    27   19   20 1
    28   19   21 1
    29   19   39 1
    30   20   40 1
    31   21   22 1
    32   21   41 1
    33   22   23 ar
    34   22   31 ar
    35   23   24 ar
    36   23   42 1
    37   24   25 ar
    38   25   26 ar
    39   25   31 ar
    40   26   27 1
    41   26   28 ar
    42   27   43 1
    43   27   44 1
    44   28   29 ar
    45   28   46 1
    46   29   30 ar
    47   29   45 1
    48   30   31 ar
@<TRIPOS>SUBSTRUCTURE
     1 ATP         1 GROUP 0 A     ****
@<TRIPOS>MOLECULE
[[[5-(6-amino-1,8-dihydropurine-6,8-diylium-7-id-9-yl)-3,4-dihydroxy-tetrahydrofuran-2-yl]methoxy-hydroxy-phosphoryl]oxy-hydroxy-phosphoryl] phosphate
   46    48     1     0     0
SMALL
USER_CHARGES

@<TRIPOS>ATOM
      1 PG          2.5641    1.6650   -7.4265 P.3       1 ATP         1.3273
      2 O1G         1.1657    2.0478   -7.8998 O.co2     1 ATP        -0.8181
      3 O2G         3.6698    1.9488   -8.4378 O.co2     1 ATP        -0.8181
      4 O3G         2.8875    2.1108   -6.0043 O.co2     1 ATP        -0.8181
      5 PB          1.5823   -0.9556   -6.4374 P.3       1 ATP         1.7707
      6 O1B         0.1110   -0.8280   -6.7015 O.2       1 ATP        -0.8474
      7 O2B         2.2023   -2.4224   -6.7152 O.3       1 ATP        -0.8078
      8 O3B         2.5194    0.0209   -7.3228 O.3       1 ATP        -0.7032
      9 PA          3.4999   -0.6421   -4.2280 P.3       1 ATP         1.7252
     10 O1A         4.5977   -0.0936   -5.0926 O.2       1 ATP        -0.8058
     11 O2A         3.6936   -2.1918   -3.8061 O.3       1 ATP        -0.7761
     12 O3A         2.0410   -0.6272   -4.9239 O.3       1 ATP        -0.7114
     13 O5'         3.2903    0.1346   -2.8241 O.3       1 ATP        -0.5745
     14 C5'         2.2816   -0.2918   -1.9206 C.3       1 ATP         0.1981
     15 C4'         2.7248    0.0226   -0.4980 C.3       1 ATP         0.1050
     16 O4'         2.4697    1.4219   -0.2462 O.3       1 ATP        -0.3841
     17 C3'         1.9404   -0.7419    0.5596 C.3       1 ATP         0.0822
     18 O3'         2.7418   -0.8086    1.7389 O.3       1 ATP        -0.5784
     19 C2'         0.7477    0.1630    0.7858 C.3       1 ATP         0.0580
     20 O2'         0.1373   -0.0577    2.0407 O.3       1 ATP        -0.5710
     21 C1'         1.3733    1.5427    0.6747 C.3       1 ATP         0.4076
     22 N9          0.4520    2.5240    0.1767 N.pl3     1 ATP        -0.4359
     23 C8          0.1798    2.8712   -1.2933 C.ar      1 ATP         0.1755
     24 N7         -0.7494    3.8400   -1.3610 N.2       1 ATP        -0.2905
     25 C5         -1.0173    4.0603   -0.0358 C.ar      1 ATP        -0.1036
     26 C6         -2.0105    5.0717    0.4241 C.ar      1 ATP         0.4096
     27 N6         -2.6723    5.7982   -0.4628 N.pl3     1 ATP        -0.8318
     28 N1         -2.1445    5.1522    1.7502 N.pl3     1 ATP        -0.7165
     29 C2         -1.3755    4.3143    2.6427 C.ar      1 ATP         0.6120
     30 N3         -0.5075    3.4292    2.2616 N.ar      1 ATP        -0.5097
     31 C4         -0.3667    3.3425    0.9070 C.ar      1 ATP         0.2352
     32 HOB2        2.1397   -2.8008   -7.6180 H         1 ATP         0.4987
     33 HOA2        3.7457   -2.8724   -4.5104 H         1 ATP         0.4629
     34 H5'1        1.3514    0.2330   -2.1577 H         1 ATP         0.0490
     35 H5'2        2.1280   -1.3678   -2.0460 H         1 ATP         0.0490
     36 H4'         3.8040   -0.1399   -0.4044 H         1 ATP         0.1109
     37 H3'         1.6768   -1.7637    0.2732 H         1 ATP         0.0811
     38 HO3'        3.5553   -1.2733    1.4913 H         1 ATP         0.4115
     39 H2'         0.0002   -0.0084   -0.0014 H         1 ATP         0.0694
     40 HO2'       -0.1554   -0.9852    2.0577 H         1 ATP         0.4114
     41 H1'         1.7718    1.9211    1.6015 H         1 ATP         0.1324
     42 H8          0.6089    2.4651   -2.2147 H         1 ATP         0.2428
     43 HN61       -2.5055    5.6680   -1.4503 H         1 ATP         0.4700
     44 HN62       -3.3462    6.4841   -0.1542 H         1 ATP         0.4700
     45 H2         -1.5932    4.4937    3.7066 H         1 ATP         0.0755
     46 H46        -2.8098    5.8270    2.1160 H         1 ATP         0.4610
@<TRIPOS>BOND
     1    1    2 2
     2    1    3 1
     3    1    4 1
     4    1    8 1
     5    5    6 2
     6    5    7 1
     7    5    8 1
     8    5   12 1
     9    7   32 1
    10    9   10 2
    11    9   11 1
    12    9   12 1
    13    9   13 1
    14   11   33 1
    15   13   14 1
    16   14   15 1
    17   14   34 1
    18   14   35 1
    19   15   16 1
    20   15   17 1
    21   15   36 1
    22   16   21 1
    23   17   18 1
    24   17   19 1
    25   17   37 1
    26   18   38 1
    27   19   20 1
    28   19   21 1
    29   19   39 1
    30   20   40 1
    31   21   22 1
    32   21   41 1
    33   22   23 ar
    34   22   31 ar
    35   23   24 ar
    36   23   42 1
    37   24   25 ar
    38   25   26 ar
    39   25   31 ar
    40   26   27 1
    41   26   28 ar
    42   27   43 1
    43   27   44 1
    44   28   29 ar
    45   28   46 1
    46   29   30 ar
    47   29   45 1
    48   30   31 ar
@<TRIPOS>SUBSTRUCTURE
     1 ATP         1 GROUP 0 A     ****
@<TRIPOS>MOLECULE
[[[5-(6-amino-1,8-dihydropurine-6,8-diylium-7-id-9-yl)-3,4-dihydroxy-tetrahydrofuran-2-yl]methoxy-hydroxy-phosphoryl]oxy-hydroxy-phosphoryl] phosphate
   46    48     1     0     0
SMALL
USER_CHARGES

@<TRIPOS>ATOM
      1 PG         -0.8749    4.9281   -4.5989 P.3       1 ATP         1.3273
      2 O1G        -0.0155    5.8109   -5.4979 O.co2     1 ATP        -0.8181
      3 O2G        -1.2358    5.5587   -3.2580 O.co2     1 ATP        -0.8181
      4 O3G        -2.0464    4.2608   -5.3120 O.co2     1 ATP        -0.8181
      5 PB          0.8586    2.5799   -5.1383 P.3       1 ATP         1.7707
      6 O1B        -0.0566    1.7348   -5.9742 O.2       1 ATP        -0.8474
      7 O2B         1.9228    3.4661   -5.9720 O.3       1 ATP        -0.8078
      8 O3B         0.1136    3.6700   -4.2043 O.3       1 ATP        -0.7032
      9 PA          2.8894    0.6160   -4.3158 P.3       1 ATP         1.7252
     10 O1A         4.0467    1.0418   -5.1719 O.2       1 ATP        -0.8058
     11 O2A         2.0300   -0.6147   -4.9191 O.3       1 ATP        -0.7761
     12 O3A         1.7778    1.7672   -4.0877 O.3       1 ATP        -0.7114
     13 O5'         3.2903    0.1346   -2.8241 O.3       1 ATP        -0.5745
     14 C5'         2.2816   -0.2918   -1.9206 C.3       1 ATP         0.1981
     15 C4'         2.7248    0.0226   -0.4980 C.3       1 ATP         0.1050
     16 O4'         2.4697    1.4219   -0.2462 O.3       1 ATP        -0.3841
     17 C3'         1.9404   -0.7419    0.5596 C.3       1 ATP         0.0822
     18 O3'         2.7418   -0.8086    1.7389 O.3       1 ATP        -0.5784
     19 C2'         0.7477    0.1630    0.7858 C.3       1 ATP         0.0580
     20 O2'         0.1373   -0.0577    2.0407 O.3       1 ATP        -0.5710
     21 C1'         1.3733    1.5427    0.6747 C.3       1 ATP         0.4076
     22 N9          0.4520    2.5240    0.1767 N.pl3     1 ATP        -0.4359
     23 C8         -0.3054    2.4845   -1.1576 C.ar      1 ATP         0.1755
     24 N7         -1.0755    3.5806   -1.2691 N.2       1 ATP        -0.2905
     25 C5         -0.8043    4.2306   -0.0942 C.ar      1 ATP        -0.1036
     26 C6         -1.4324    5.5335    0.2646 C.ar      1 ATP         0.4096
     27 N6         -2.2885    6.1054   -0.5675 N.pl3     1 ATP        -0.8318
     28 N1         -1.0537    6.0229    1.4478 N.pl3     1 ATP        -0.7165
     29 C2         -0.1096    5.3242    2.2908 C.ar      1 ATP         0.6120
     30 N3          0.4468    4.1904    1.9960 N.ar      1 ATP        -0.5097
     31 C4          0.0631    3.6855    0.7877 C.ar      1 ATP         0.2352
     32 HOB2        2.5672    3.0102   -6.5542 H         1 ATP         0.4987
     33 HOA2        2.4782   -1.4718   -5.0815 H         1 ATP         0.4629
     34 H5'1        1.3514    0.2330   -2.1577 H         1 ATP         0.0490
     35 H5'2        2.1280   -1.3678   -2.0460 H         1 ATP         0.0490
     36 H4'         3.8040   -0.1399   -0.4044 H         1 ATP         0.1109
     37 H3'         1.6768   -1.7637    0.2732 H         1 ATP         0.0811
     38 HO3'        2.2231   -1.2979    2.3952 H         1 ATP         0.4115
     39 H2'         0.0002   -0.0084   -0.0014 H         1 ATP         0.0694
     40 HO2'       -0.6132    0.5577    2.1063 H         1 ATP         0.4114
     41 H1'         1.7718    1.9211    1.6015 H         1 ATP         0.1324
     42 H8         -0.2991    1.7413   -1.9611 H         1 ATP         0.2428
     43 HN61       -2.5167    5.6603   -1.4447 H         1 ATP         0.4700
     44 HN62       -2.7159    6.9882   -0.3270 H         1 ATP         0.4700
     45 H2          0.1059    5.8491    3.2340 H         1 ATP         0.0755
     46 H46        -1.4532    6.9099    1.7401 H         1 ATP         0.4610
@<TRIPOS>BOND
     1    1    2 2
     2    1    3 1
     3    1    4 1
     4    1    8 1
     5    5    6 2
     6    5    7 1
     7    5    8 1
     8    5   12 1
     9    7   32 1
    10    9   10 2
    11    9   11 1
    12    9   12 1
    13    9   13 1
    14   11   33 1
    15   13   14 1
    16   14   15 1
    17   14   34 1
    18   14   35 1
    19   15   16 1
    20   15   17 1
    21   15   36 1
    22   16   21 1
    23   17   18 1
    24   17   19 1
    25   17   37 1
    26   18   38 1
    27   19   20 1
    28   19   21 1
    29   19   39 1
    30   20   40 1
    31   21   22 1
    32   21   41 1
    33   22   23 ar
    34   22   31 ar
    35   23   24 ar
    36   23   42 1
    37   24   25 ar
    38   25   26 ar
    39   25   31 ar
    40   26   27 1
    41   26   28 ar
    42   27   43 1
    43   27   44 1
    44   28   29 ar
    45   28   46 1
    46   29   30 ar
    47   29   45 1
    48   30   31 ar
@<TRIPOS>SUBSTRUCTURE
     1 ATP         1 GROUP 0 A     ****
@<TRIPOS>MOLECULE
[[[5-(6-amino-1,8-dihydropurine-6,8-diylium-7-id-9-yl)-3,4-dihydroxy-tetrahydrofuran-2-yl]methoxy-hydroxy-phosphoryl]oxy-hydroxy-phosphoryl] phosphate
   46    48     1     0     0
SMALL
USER_CHARGES

@<TRIPOS>ATOM
      1 PG          8.4535    0.0443   -1.4185 P.3       1 ATP         1.3273
      2 O1G         8.0547   -0.0074    0.0527 O.co2     1 ATP        -0.8181
      3 O2G         8.8024    1.4392   -1.9268 O.co2     1 ATP        -0.8181
      4 O3G         9.4412   -1.0396   -1.8378 O.co2     1 ATP        -0.8181
      5 PB          6.1593   -1.6834   -2.1678 P.3       1 ATP         1.7707
      6 O1B         6.8676   -2.9491   -2.5512 O.2       1 ATP        -0.8474
      7 O2B         5.5603   -1.6627   -0.6666 O.3       1 ATP        -0.8078
      8 O3B         7.0716   -0.3493   -2.2255 O.3       1 ATP        -0.7032
      9 PA          3.5157   -2.0914   -3.3934 P.3       1 ATP         1.7252
     10 O1A         3.6883   -3.5720   -3.5721 O.2       1 ATP        -0.8058
     11 O2A         2.9244   -1.3270   -4.6908 O.3       1 ATP        -0.7761
     12 O3A         4.8910   -1.2978   -3.0907 O.3       1 ATP        -0.7114
     13 O5'         2.5245   -1.6648   -2.1878 O.3       1 ATP        -0.5745
     14 C5'         2.2816   -0.2918   -1.9206 C.3       1 ATP         0.1981
     15 C4'         2.7248    0.0226   -0.4980 C.3       1 ATP         0.1050
     16 O4'         2.4697    1.4219   -0.2462 O.3       1 ATP        -0.3841
     17 C3'         1.9404   -0.7419    0.5596 C.3       1 ATP         0.0822
     18 O3'         2.7418   -0.8086    1.7389 O.3       1 ATP        -0.5784
     19 C2'         0.7477    0.1630    0.7858 C.3       1 ATP         0.0580
     20 O2'         0.1373   -0.0577    2.0407 O.3       1 ATP        -0.5710
     21 C1'         1.3733    1.5427    0.6747 C.3       1 ATP         0.4076
     22 N9          0.4520    2.5240    0.1767 N.pl3     1 ATP        -0.4359
     23 C8          0.1798    2.8712   -1.2933 C.ar      1 ATP         0.1755
     24 N7         -0.7494    3.8400   -1.3610 N.2       1 ATP        -0.2905
     25 C5         -1.0173    4.0603   -0.0358 C.ar      1 ATP        -0.1036
     26 C6         -2.0105    5.0717    0.4241 C.ar      1 ATP         0.4096
     27 N6         -2.6723    5.7982   -0.4628 N.pl3     1 ATP        -0.8318
     28 N1         -2.1445    5.1522    1.7502 N.pl3     1 ATP        -0.7165
     29 C2         -1.3755    4.3143    2.6427 C.ar      1 ATP         0.6120
     30 N3         -0.5075    3.4292    2.2616 N.ar      1 ATP        -0.5097
     31 C4         -0.3667    3.3425    0.9070 C.ar      1 ATP         0.2352
     32 HOB2        6.1741   -1.7716    0.0908 H         1 ATP         0.4987
     33 HOA2        3.4254   -1.3648   -5.5331 H         1 ATP         0.4629
     34 H5'1        2.8432    0.3119   -2.6398 H         1 ATP         0.0490
     35 H5'2        1.2128   -0.0927   -2.0428 H         1 ATP         0.0490
     36 H4'         3.8040   -0.1399   -0.4044 H         1 ATP         0.1109
     37 H3'         1.6768   -1.7637    0.2732 H         1 ATP         0.0811
     38 HO3'        2.2231   -1.2979    2.3952 H         1 ATP         0.4115
     39 H2'         0.0002   -0.0084   -0.0014 H         1 ATP         0.0694
     40 HO2'       -0.6132    0.5577    2.1063 H         1 ATP         0.4114
     41 H1'         1.7718    1.9211    1.6015 H         1 ATP         0.1324
     42 H8          0.6089    2.4651   -2.2147 H         1 ATP         0.2428
     43 HN61       -3.3458    6.4845   -0.1543 H         1 ATP         0.4700
     44 HN62       -2.5050    5.6683   -1.4502 H         1 ATP         0.4700
     45 H2         -1.5932    4.4937    3.7066 H         1 ATP         0.0755
     46 H46        -2.8098    5.8270    2.1160 H         1 ATP         0.4610
@<TRIPOS>BOND
     1    1    2 2
     2    1    3 1
     3    1    4 1
     4    1    8 1
     5    5    6 2
     6    5    7 1
     7    5    8 1
     8    5   12 1
     9    7   32 1
    10    9   10 2
    11    9   11 1
    12    9   12 1
    13    9   13 1
    14   11   33 1
    15   13   14 1
    16   14   15 1
    17   14   34 1
    18   14   35 1
    19   15   16 1
    20   15   17 1
    21   15   36 1
    22   16   21 1
    23   17   18 1
    24   17   19 1
    25   17   37 1
    26   18   38 1
    27   19   20 1
    28   19   21 1
    29   19   39 1
    30   20   40 1
    31   21   22 1
    32   21   41 1
    33   22   23 ar
    34   22   31 ar
    35   23   24 ar
    36   23   42 1
    37   24   25 ar
    38   25   26 ar
    39   25   31 ar
    40   26   27 1
    41   26   28 ar
    42   27   43 1
    43   27   44 1
    44   28   29 ar
    45   28   46 1
    46   29   30 ar
    47   29   45 1
    48   30   31 ar
@<TRIPOS>SUBSTRUCTURE
     1 ATP         1 GROUP 0 A     ****
@<TRIPOS>MOLECULE
[[[5-(6-amino-1,8-dihydropurine-6,8-diylium-7-id-9-yl)-3,4-dihydroxy-tetrahydrofuran-2-yl]methoxy-hydroxy-phosphoryl]oxy-hydroxy-phosphoryl] phosphate
   46    48     1     0     0
SMALL
USER_CHARGES

@<TRIPOS>ATOM
      1 PG          3.6827    3.9810   -6.4124 P.3       1 ATP         1.3273
      2 O1G         3.1914    2.6023   -6.8413 O.co2     1 ATP        -0.8181
      3 O2G         5.0603    4.3531   -6.9505 O.co2     1 ATP        -0.8181
      4 O3G         2.6400    5.0861   -6.5445 O.co2     1 ATP        -0.8181
      5 PB          2.8627    3.4712   -3.6057 P.3       1 ATP         1.7707
      6 O1B         3.4539    3.4443   -2.2271 O.2       1 ATP        -0.8474
      7 O2B         1.6650    4.5364   -3.8155 O.3       1 ATP        -0.8078
      8 O3B         3.9049    3.8423   -4.7854 O.3       1 ATP        -0.7032
      9 PA          2.8894    0.6160   -4.3158 P.3       1 ATP         1.7252
     10 O1A         4.0146    0.5899   -5.3092 O.2       1 ATP        -0.8058
     11 O2A         1.6263   -0.3134   -4.7133 O.3       1 ATP        -0.7761
     12 O3A         2.2250    2.0750   -4.1086 O.3       1 ATP        -0.7114
     13 O5'         3.2903    0.1346   -2.8241 O.3       1 ATP        -0.5745
     14 C5'         2.2816   -0.2918   -1.9206 C.3       1 ATP         0.1981
     15 C4'         2.7248    0.0226   -0.4980 C.3       1 ATP         0.1050
     16 O4'         2.4697    1.4219   -0.2462 O.3       1 ATP        -0.3841
     17 C3'         1.9404   -0.7419    0.5596 C.3       1 ATP         0.0822
     18 O3'         2.7418   -0.8086    1.7389 O.3       1 ATP        -0.5784
     19 C2'         0.7477    0.1630    0.7858 C.3       1 ATP         0.0580
     20 O2'         0.1373   -0.0577    2.0407 O.3       1 ATP        -0.5710
     21 C1'         1.3733    1.5427    0.6747 C.3       1 ATP         0.4076
     22 N9          0.4520    2.5240    0.1767 N.pl3     1 ATP        -0.4359
     23 C8          0.1798    2.8712   -1.2933 C.ar      1 ATP         0.1755
     24 N7         -0.7494    3.8400   -1.3610 N.2       1 ATP        -0.2905
     25 C5         -1.0173    4.0603   -0.0358 C.ar      1 ATP        -0.1036
     26 C6         -2.0105    5.0717    0.4241 C.ar      1 ATP         0.4096
     27 N6         -2.6723    5.7982   -0.4628 N.pl3     1 ATP        -0.8318
     28 N1         -2.1445    5.1522    1.7502 N.pl3     1 ATP        -0.7165
     29 C2         -1.3755    4.3143    2.6427 C.ar      1 ATP         0.6120
     30 N3         -0.5075    3.4292    2.2616 N.ar      1 ATP        -0.5097
     31 C4         -0.3667    3.3425    0.9070 C.ar      1 ATP         0.2352
     32 HOB2        1.8465    5.4893   -3.6700 H         1 ATP         0.4987
     33 HOA2        1.1504   -0.1340   -5.5520 H         1 ATP         0.4629
     34 H5'1        1.3514    0.2330   -2.1577 H         1 ATP         0.0490
     35 H5'2        2.1280   -1.3678   -2.0460 H         1 ATP         0.0490
     36 H4'         3.8040   -0.1399   -0.4044 H         1 ATP         0.1109
     37 H3'         1.6768   -1.7637    0.2732 H         1 ATP         0.0811
     38 HO3'        3.5553   -1.2733    1.4913 H         1 ATP         0.4115
     39 H2'         0.0002   -0.0084   -0.0014 H         1 ATP         0.0694
     40 HO2'       -0.6132    0.5577    2.1063 H         1 ATP         0.4114
     41 H1'         1.7718    1.9211    1.6015 H         1 ATP         0.1324
     42 H8          0.6089    2.4651   -2.2147 H         1 ATP         0.2428
     43 HN61       -2.5055    5.6680   -1.4503 H         1 ATP         0.4700
     44 HN62       -3.3462    6.4841   -0.1542 H         1 ATP         0.4700
     45 H2         -1.5932    4.4937    3.7066 H         1 ATP         0.0755
     46 H46        -2.8098    5.8270    2.1160 H         1 ATP         0.4610
@<TRIPOS>BOND
     1    1    2 2
     2    1    3 1
     3    1    4 1
     4    1    8 1
     5    5    6 2
     6    5    7 1
     7    5    8 1
     8    5   12 1
     9    7   32 1
    10    9   10 2
    11    9   11 1
    12    9   12 1
    13    9   13 1
    14   11   33 1
    15   13   14 1
    16   14   15 1
    17   14   34 1
    18   14   35 1
    19   15   16 1
    20   15   17 1
    21   15   36 1
    22   16   21 1
    23   17   18 1
    24   17   19 1
    25   17   37 1
    26   18   38 1
    27   19   20 1
    28   19   21 1
    29   19   39 1
    30   20   40 1
    31   21   22 1
    32   21   41 1
    33   22   23 ar
    34   22   31 ar
    35   23   24 ar
    36   23   42 1
    37   24   25 ar
    38   25   26 ar
    39   25   31 ar
    40   26   27 1
    41   26   28 ar
    42   27   43 1
    43   27   44 1
    44   28   29 ar
    45   28   46 1
    46   29   30 ar
    47   29   45 1
    48   30   31 ar
@<TRIPOS>SUBSTRUCTURE
     1 ATP         1 GROUP 0 A     ****
@<TRIPOS>MOLECULE
[[[5-(6-amino-1,8-dihydropurine-6,8-diylium-7-id-9-yl)-3,4-dihydroxy-tetrahydrofuran-2-yl]methoxy-hydroxy-phosphoryl]oxy-hydroxy-phosphoryl] phosphate
   46    48     1     0     0
SMALL
USER_CHARGES

@<TRIPOS>ATOM
      1 PG          1.7280    4.9697   -4.4173 P.3       1 ATP         1.3273
      2 O1G         0.6356    5.7571   -3.7013 O.co2     1 ATP        -0.8181
      3 O2G         2.4414    5.7446   -5.5202 O.co2     1 ATP        -0.8181
      4 O3G         2.6621    4.2053   -3.4850 O.co2     1 ATP        -0.8181
      5 PB         -0.0479    2.6041   -4.6624 P.3       1 ATP         1.7707
      6 O1B        -1.2589    3.0769   -3.9136 O.2       1 ATP        -0.8474
      7 O2B        -0.3601    1.7238   -5.9817 O.3       1 ATP        -0.8078
      8 O3B         0.9117    3.7821   -5.2167 O.3       1 ATP        -0.7032
      9 PA          2.3606    0.9705   -4.2295 P.3       1 ATP         1.7252
     10 O1A         3.2451    1.8209   -5.0944 O.2       1 ATP        -0.8058
     11 O2A         1.8849   -0.4138   -4.9183 O.3       1 ATP        -0.7761
     12 O3A         0.9666    1.6760   -3.8148 O.3       1 ATP        -0.7114
     13 O5'         3.0213    0.5153   -2.8245 O.3       1 ATP        -0.5745
     14 C5'         2.2816   -0.2918   -1.9206 C.3       1 ATP         0.1981
     15 C4'         2.7248    0.0226   -0.4980 C.3       1 ATP         0.1050
     16 O4'         2.4697    1.4219   -0.2462 O.3       1 ATP        -0.3841
     17 C3'         1.9404   -0.7419    0.5596 C.3       1 ATP         0.0822
     18 O3'         2.7418   -0.8086    1.7389 O.3       1 ATP        -0.5784
     19 C2'         0.7477    0.1630    0.7858 C.3       1 ATP         0.0580
     20 O2'         0.1373   -0.0577    2.0407 O.3       1 ATP        -0.5710
     21 C1'         1.3733    1.5427    0.6747 C.3       1 ATP         0.4076
     22 N9          0.4520    2.5240    0.1767 N.pl3     1 ATP        -0.4359
     23 C8          0.5793    3.3338   -1.1209 C.ar      1 ATP         0.1755
     24 N7         -0.4807    4.1508   -1.2458 N.2       1 ATP        -0.2905
     25 C5         -1.1921    3.8572   -0.1126 C.ar      1 ATP        -0.1036
     26 C6         -2.4855    4.5203    0.2163 C.ar      1 ATP         0.4096
     27 N6         -2.9873    5.4319   -0.6020 N.pl3     1 ATP        -0.8318
     28 N1         -3.0414    4.1119    1.3596 N.pl3     1 ATP        -0.7165
     29 C2         -2.4169    3.1071    2.1904 C.ar      1 ATP         0.6120
     30 N3         -1.2928    2.5191    1.9210 N.ar      1 ATP        -0.5097
     31 C4         -0.7202    2.9326    0.7534 C.ar      1 ATP         0.2352
     32 HOB2       -0.8848    2.1251   -6.7068 H         1 ATP         0.4987
     33 HOA2        2.5650   -1.0623   -5.1991 H         1 ATP         0.4629
     34 H5'1        1.2163   -0.0770   -2.0471 H         1 ATP         0.0490
     35 H5'2        2.4655   -1.3443   -2.1563 H         1 ATP         0.0490
     36 H4'         3.8040   -0.1399   -0.4044 H         1 ATP         0.1109
     37 H3'         1.6768   -1.7637    0.2732 H         1 ATP         0.0811
     38 HO3'        3.5553   -1.2733    1.4913 H         1 ATP         0.4115
     39 H2'         0.0002   -0.0084   -0.0014 H         1 ATP         0.0694
     40 HO2'       -0.1554   -0.9852    2.0577 H         1 ATP         0.4114
     41 H1'         1.7718    1.9211    1.6015 H         1 ATP         0.1324
     42 H8          1.3565    3.3309   -1.8916 H         1 ATP         0.2428
     43 HN61       -2.4952    5.6785   -1.4487 H         1 ATP         0.4700
     44 HN62       -3.8637    5.8828   -0.3819 H         1 ATP         0.4700
     45 H2         -2.9911    2.8734    3.1000 H         1 ATP         0.0755
     46 H46        -3.9253    4.5332    1.6302 H         1 ATP         0.4610
@<TRIPOS>BOND
     1    1    2 2
     2    1    3 1
     3    1    4 1
     4    1    8 1
     5    5    6 2
     6    5    7 1
     7    5    8 1
     8    5   12 1
     9    7   32 1
    10    9   10 2
    11    9   11 1
    12    9   12 1
    13    9   13 1
    14   11   33 1
    15   13   14 1
    16   14   15 1
    17   14   34 1
    18   14   35 1
    19   15   16 1
    20   15   17 1
    21   15   36 1
    22   16   21 1
    23   17   18 1
    24   17   19 1
    25   17   37 1
    26   18   38 1
    27   19   20 1
    28   19   21 1
    29   19   39 1
    30   20   40 1
    31   21   22 1
    32   21   41 1
    33   22   23 ar
    34   22   31 ar
    35   23   24 ar
    36   23   42 1
    37   24   25 ar
    38   25   26 ar
    39   25   31 ar
    40   26   27 1
    41   26   28 ar
    42   27   43 1
    43   27   44 1
    44   28   29 ar
    45   28   46 1
    46   29   30 ar
    47   29   45 1
    48   30   31 ar
@<TRIPOS>SUBSTRUCTURE
     1 ATP         1 GROUP 0 A     ****
@<TRIPOS>MOLECULE
[[[5-(6-amino-1,8-dihydropurine-6,8-diylium-7-id-9-yl)-3,4-dihydroxy-tetrahydrofuran-2-yl]methoxy-hydroxy-phosphoryl]oxy-hydroxy-phosphoryl] phosphate
   46    48     1     0     0
SMALL
USER_CHARGES

@<TRIPOS>ATOM
      1 PG          7.0477   -0.9448   -5.9021 P.3       1 ATP         1.3273
      2 O1G         7.9433   -2.0424   -5.3371 O.co2     1 ATP        -0.8181
      3 O2G         7.7998    0.1816   -6.6031 O.co2     1 ATP        -0.8181
      4 O3G         5.8348   -1.4599   -6.6700 O.co2     1 ATP        -0.8181
      5 PB          5.4765   -0.8420   -3.3861 P.3       1 ATP         1.7707
      6 O1B         6.1113   -1.9558   -2.6068 O.2       1 ATP        -0.8474
      7 O2B         5.0725    0.4583   -2.5150 O.3       1 ATP        -0.8078
      8 O3B         6.3946   -0.2301   -4.5686 O.3       1 ATP        -0.7032
      9 PA          2.8586   -2.1490   -3.6951 P.3       1 ATP         1.7252
     10 O1A         3.0953   -3.6239   -3.8443 O.2       1 ATP        -0.8058
     11 O2A         1.6336   -1.5763   -4.5831 O.3       1 ATP        -0.7761
     12 O3A         4.1078   -1.2300   -4.1510 O.3       1 ATP        -0.7114
     13 O5'         2.5245   -1.6648   -2.1878 O.3       1 ATP        -0.5745
     14 C5'         2.2816   -0.2918   -1.9206 C.3       1 ATP         0.1981
     15 C4'         2.7248    0.0226   -0.4980 C.3       1 ATP         0.1050
     16 O4'         2.4697    1.4219   -0.2462 O.3       1 ATP        -0.3841
     17 C3'         1.9404   -0.7419    0.5596 C.3       1 ATP         0.0822
     18 O3'         2.7418   -0.8086    1.7389 O.3       1 ATP        -0.5784
     19 C2'         0.7477    0.1630    0.7858 C.3       1 ATP         0.0580
     20 O2'         0.1373   -0.0577    2.0407 O.3       1 ATP        -0.5710
     21 C1'         1.3733    1.5427    0.6747 C.3       1 ATP         0.4076
     22 N9          0.4520    2.5240    0.1767 N.pl3     1 ATP        -0.4359
     23 C8          0.1798    2.8712   -1.2933 C.ar      1 ATP         0.1755
     24 N7         -0.7494    3.8400   -1.3610 N.2       1 ATP        -0.2905
     25 C5         -1.0173    4.0603   -0.0358 C.ar      1 ATP        -0.1036
     26 C6         -2.0105    5.0717    0.4241 C.ar      1 ATP         0.4096
     27 N6         -2.6723    5.7982   -0.4628 N.pl3     1 ATP        -0.8318
     28 N1         -2.1445    5.1522    1.7502 N.pl3     1 ATP        -0.7165
     29 C2         -1.3755    4.3143    2.6427 C.ar      1 ATP         0.6120
     30 N3         -0.5075    3.4292    2.2616 N.ar      1 ATP        -0.5097
     31 C4         -0.3667    3.3425    0.9070 C.ar      1 ATP         0.2352
     32 HOB2        5.7753    0.9432   -2.0322 H         1 ATP         0.4987
     33 HOA2        1.6701   -1.6703   -5.5587 H         1 ATP         0.4629
     34 H5'1        2.8432    0.3119   -2.6398 H         1 ATP         0.0490
     35 H5'2        1.2128   -0.0927   -2.0428 H         1 ATP         0.0490
     36 H4'         3.8040   -0.1399   -0.4044 H         1 ATP         0.1109
     37 H3'         1.6768   -1.7637    0.2732 H         1 ATP         0.0811
     38 HO3'        3.5553   -1.2733    1.4913 H         1 ATP         0.4115
     39 H2'         0.0002   -0.0084   -0.0014 H         1 ATP         0.0694
     40 HO2'       -0.6132    0.5577    2.1063 H         1 ATP         0.4114
     41 H1'         1.7718    1.9211    1.6015 H         1 ATP         0.1324
     42 H8          0.6089    2.4651   -2.2147 H         1 ATP         0.2428
     43 HN61       -3.3458    6.4845   -0.1543 H         1 ATP         0.4700
     44 HN62       -2.5050    5.6683   -1.4502 H         1 ATP         0.4700
     45 H2         -1.5932    4.4937    3.7066 H         1 ATP         0.0755
     46 H46        -2.8098    5.8270    2.1160 H         1 ATP         0.4610
@<TRIPOS>BOND
     1    1    2 2
     2    1    3 1
     3    1    4 1
     4    1    8 1
     5    5    6 2
     6    5    7 1
     7    5    8 1
     8    5   12 1
     9    7   32 1
    10    9   10 2
    11    9   11 1
    12    9   12 1
    13    9   13 1
    14   11   33 1
    15   13   14 1
    16   14   15 1
    17   14   34 1
    18   14   35 1
    19   15   16 1
    20   15   17 1
    21   15   36 1
    22   16   21 1
    23   17   18 1
    24   17   19 1
    25   17   37 1
    26   18   38 1
    27   19   20 1
    28   19   21 1
    29   19   39 1
    30   20   40 1
    31   21   22 1
    32   21   41 1
    33   22   23 ar
    34   22   31 ar
    35   23   24 ar
    36   23   42 1
    37   24   25 ar
    38   25   26 ar
    39   25   31 ar
    40   26   27 1
    41   26   28 ar
    42   27   43 1
    43   27   44 1
    44   28   29 ar
    45   28   46 1
    46   29   30 ar
    47   29   45 1
    48   30   31 ar
@<TRIPOS>SUBSTRUCTURE
     1 ATP         1 GROUP 0 A     ****
@<TRIPOS>MOLECULE
[[[5-(6-amino-1,8-dihydropurine-6,8-diylium-7-id-9-yl)-3,4-dihydroxy-tetrahydrofuran-2-yl]methoxy-hydroxy-phosphoryl]oxy-hydroxy-phosphoryl] phosphate
   46    48     1     0     0
SMALL
USER_CHARGES

@<TRIPOS>ATOM
      1 PG          0.1423   -1.0486   -7.7538 P.3       1 ATP         1.3273
      2 O1G         0.7369   -0.0767   -8.7676 O.co2     1 ATP        -0.8181
      3 O2G        -1.2896   -1.4765   -8.0579 O.co2     1 ATP        -0.8181
      4 O3G         1.0698   -2.1963   -7.3682 O.co2     1 ATP        -0.8181
      5 PB          1.1481    0.5922   -5.4941 P.3       1 ATP         1.7707
      6 O1B         1.9112    1.6542   -6.2292 O.2       1 ATP        -0.8474
      7 O2B         0.3337    1.1091   -4.1969 O.3       1 ATP        -0.8078
      8 O3B         0.0172   -0.1623   -6.3701 O.3       1 ATP        -0.7032
      9 PA          3.4999   -0.6421   -4.2280 P.3       1 ATP         1.7252
     10 O1A         4.5977   -0.0936   -5.0926 O.2       1 ATP        -0.8058
     11 O2A         3.6936   -2.1918   -3.8061 O.3       1 ATP        -0.7761
     12 O3A         2.0410   -0.6272   -4.9239 O.3       1 ATP        -0.7114
     13 O5'         3.2903    0.1346   -2.8241 O.3       1 ATP        -0.5745
     14 C5'         2.2816   -0.2918   -1.9206 C.3       1 ATP         0.1981
     15 C4'         2.7248    0.0226   -0.4980 C.3       1 ATP         0.1050
     16 O4'         2.4697    1.4219   -0.2462 O.3       1 ATP        -0.3841
     17 C3'         1.9404   -0.7419    0.5596 C.3       1 ATP         0.0822
     18 O3'         2.7418   -0.8086    1.7389 O.3       1 ATP        -0.5784
     19 C2'         0.7477    0.1630    0.7858 C.3       1 ATP         0.0580
     20 O2'         0.1373   -0.0577    2.0407 O.3       1 ATP        -0.5710
     21 C1'         1.3733    1.5427    0.6747 C.3       1 ATP         0.4076
     22 N9          0.4520    2.5240    0.1767 N.pl3     1 ATP        -0.4359
     23 C8         -0.3054    2.4845   -1.1576 C.ar      1 ATP         0.1755
     24 N7         -1.0755    3.5806   -1.2691 N.2       1 ATP        -0.2905
     25 C5         -0.8043    4.2306   -0.0942 C.ar      1 ATP        -0.1036
     26 C6         -1.4324    5.5335    0.2646 C.ar      1 ATP         0.4096
     27 N6         -2.2885    6.1054   -0.5675 N.pl3     1 ATP        -0.8318
     28 N1         -1.0537    6.0229    1.4478 N.pl3     1 ATP        -0.7165
     29 C2         -0.1096    5.3242    2.2908 C.ar      1 ATP         0.6120
     30 N3          0.4468    4.1904    1.9960 N.ar      1 ATP        -0.5097
     31 C4          0.0631    3.6855    0.7877 C.ar      1 ATP         0.2352
     32 HOB2        0.8294    1.5279   -3.4613 H         1 ATP         0.4987
     33 HOA2        4.4907   -2.4486   -3.2956 H         1 ATP         0.4629
     34 H5'1        1.3514    0.2330   -2.1577 H         1 ATP         0.0490
     35 H5'2        2.1280   -1.3678   -2.0460 H         1 ATP         0.0490
     36 H4'         3.8040   -0.1399   -0.4044 H         1 ATP         0.1109
     37 H3'         1.6768   -1.7637    0.2732 H         1 ATP         0.0811
     38 HO3'        2.2231   -1.2979    2.3952 H         1 ATP         0.4115
     39 H2'         0.0002   -0.0084   -0.0014 H         1 ATP         0.0694
     40 HO2'       -0.1554   -0.9852    2.0577 H         1 ATP         0.4114
     41 H1'         1.7718    1.9211    1.6015 H         1 ATP         0.1324
     42 H8         -0.2991    1.7413   -1.9611 H         1 ATP         0.2428
     43 HN61       -2.5167    5.6603   -1.4447 H         1 ATP         0.4700
     44 HN62       -2.7159    6.9882   -0.3270 H         1 ATP         0.4700
     45 H2          0.1059    5.8491    3.2340 H         1 ATP         0.0755
     46 H46        -1.4532    6.9099    1.7401 H         1 ATP         0.4610
@<TRIPOS>BOND
     1    1    2 2
     2    1    3 1
     3    1    4 1
     4    1    8 1
     5    5    6 2
     6    5    7 1
     7    5    8 1
     8    5   12 1
     9    7   32 1
    10    9   10 2
    11    9   11 1
    12    9   12 1
    13    9   13 1
    14   11   33 1
    15   13   14 1
    16   14   15 1
    17   14   34 1
    18   14   35 1
    19   15   16 1
    20   15   17 1
    21   15   36 1
    22   16   21 1
    23   17   18 1
    24   17   19 1
    25   17   37 1
    26   18   38 1
    27   19   20 1
    28   19   21 1
    29   19   39 1
    30   20   40 1
    31   21   22 1
    32   21   41 1
    33   22   23 ar
    34   22   31 ar
    35   23   24 ar
    36   23   42 1
    37   24   25 ar
    38   25   26 ar
    39   25   31 ar
    40   26   27 1
    41   26   28 ar
    42   27   43 1
    43   27   44 1
    44   28   29 ar
    45   28   46 1
    46   29   30 ar
    47   29   45 1
    48   30   31 ar
@<TRIPOS>SUBSTRUCTURE
     1 ATP         1 GROUP 0 A     ****
@<TRIPOS>MOLECULE
[[[5-(6-amino-1,8-dihydropurine-6,8-diylium-7-id-9-yl)-3,4-dihydroxy-tetrahydrofuran-2-yl]methoxy-hydroxy-phosphoryl]oxy-hydroxy-phosphoryl] phosphate
   46    48     1     0     0
SMALL
USER_CHARGES

@<TRIPOS>ATOM
      1 PG          1.1928    5.0452   -5.4883 P.3       1 ATP         1.3273
      2 O1G         2.4348    5.6068   -6.1725 O.co2     1 ATP        -0.8181
      3 O2G         0.1237    6.0860   -5.1728 O.co2     1 ATP        -0.8181
      4 O3G         0.6537    3.7665   -6.1211 O.co2     1 ATP        -0.8181
      5 PB          2.8627    3.4712   -3.6057 P.3       1 ATP         1.7707
      6 O1B         4.2381    3.7698   -4.1251 O.2       1 ATP        -0.8474
      7 O2B         2.7427    3.3887   -1.9958 O.3       1 ATP        -0.8078
      8 O3B         1.7328    4.5552   -4.0104 O.3       1 ATP        -0.7032
      9 PA          2.8894    0.6160   -4.3158 P.3       1 ATP         1.7252
     10 O1A         4.0146    0.5899   -5.3092 O.2       1 ATP        -0.8058
     11 O2A         1.6263   -0.3134   -4.7133 O.3       1 ATP        -0.7761
     12 O3A         2.2250    2.0750   -4.1086 O.3       1 ATP        -0.7114
     13 O5'         3.2903    0.1346   -2.8241 O.3       1 ATP        -0.5745
     14 C5'         2.2816   -0.2918   -1.9206 C.3       1 ATP         0.1981
     15 C4'         2.7248    0.0226   -0.4980 C.3       1 ATP         0.1050
     16 O4'         2.4697    1.4219   -0.2462 O.3       1 ATP        -0.3841
     17 C3'         1.9404   -0.7419    0.5596 C.3       1 ATP         0.0822
     18 O3'         2.7418   -0.8086    1.7389 O.3       1 ATP        -0.5784
     19 C2'         0.7477    0.1630    0.7858 C.3       1 ATP         0.0580
     20 O2'         0.1373   -0.0577    2.0407 O.3       1 ATP        -0.5710
     21 C1'         1.3733    1.5427    0.6747 C.3       1 ATP         0.4076
     22 N9          0.4520    2.5240    0.1767 N.pl3     1 ATP        -0.4359
     23 C8          0.1798    2.8712   -1.2933 C.ar      1 ATP         0.1755
     24 N7         -0.7494    3.8400   -1.3610 N.2       1 ATP        -0.2905
     25 C5         -1.0173    4.0603   -0.0358 C.ar      1 ATP        -0.1036
     26 C6         -2.0105    5.0717    0.4241 C.ar      1 ATP         0.4096
     27 N6         -2.6723    5.7982   -0.4628 N.pl3     1 ATP        -0.8318
     28 N1         -2.1445    5.1522    1.7502 N.pl3     1 ATP        -0.7165
     29 C2         -1.3755    4.3143    2.6427 C.ar      1 ATP         0.6120
     30 N3         -0.5075    3.4292    2.2616 N.ar      1 ATP        -0.5097
     31 C4         -0.3667    3.3425    0.9070 C.ar      1 ATP         0.2352
     32 HOB2        3.2750    2.7204   -1.5139 H         1 ATP         0.4987
     33 HOA2        1.1504   -0.1340   -5.5520 H         1 ATP         0.4629
     34 H5'1        1.3514    0.2330   -2.1577 H         1 ATP         0.0490
     35 H5'2        2.1280   -1.3678   -2.0460 H         1 ATP         0.0490
     36 H4'         3.8040   -0.1399   -0.4044 H         1 ATP         0.1109
     37 H3'         1.6768   -1.7637    0.2732 H         1 ATP         0.0811
     38 HO3'        2.2231   -1.2979    2.3952 H         1 ATP         0.4115
     39 H2'         0.0002   -0.0084   -0.0014 H         1 ATP         0.0694
     40 HO2'       -0.6132    0.5577    2.1063 H         1 ATP         0.4114
     41 H1'         1.7718    1.9211    1.6015 H         1 ATP         0.1324
     42 H8          0.6089    2.4651   -2.2147 H         1 ATP         0.2428
     43 HN61       -2.5055    5.6680   -1.4503 H         1 ATP         0.4700
     44 HN62       -3.3462    6.4841   -0.1542 H         1 ATP         0.4700
     45 H2         -1.5932    4.4937    3.7066 H         1 ATP         0.0755
     46 H46        -2.8098    5.8270    2.1160 H         1 ATP         0.4610
@<TRIPOS>BOND
     1    1    2 2
     2    1    3 1
     3    1    4 1
     4    1    8 1
     5    5    6 2
     6    5    7 1
     7    5    8 1
     8    5   12 1
     9    7   32 1
    10    9   10 2
    11    9   11 1
    12    9   12 1
    13    9   13 1
    14   11   33 1
    15   13   14 1
    16   14   15 1
    17   14   34 1
    18   14   35 1
    19   15   16 1
    20   15   17 1
    21   15   36 1
    22   16   21 1
    23   17   18 1
    24   17   19 1
    25   17   37 1
    26   18   38 1
    27   19   20 1
    28   19   21 1
    29   19   39 1
    30   20   40 1
    31   21   22 1
    32   21   41 1
    33   22   23 ar
    34   22   31 ar
    35   23   24 ar
    36   23   42 1
    37   24   25 ar
    38   25   26 ar
    39   25   31 ar
    40   26   27 1
    41   26   28 ar
    42   27   43 1
    43   27   44 1
    44   28   29 ar
    45   28   46 1
    46   29   30 ar
    47   29   45 1
    48   30   31 ar
@<TRIPOS>SUBSTRUCTURE
     1 ATP         1 GROUP 0 A     ****
@<TRIPOS>MOLECULE
[[[5-(6-amino-1,8-dihydropurine-6,8-diylium-7-id-9-yl)-3,4-dihydroxy-tetrahydrofuran-2-yl]methoxy-hydroxy-phosphoryl]oxy-hydroxy-phosphoryl] phosphate
   46    48     1     0     0
SMALL
USER_CHARGES

@<TRIPOS>ATOM
      1 PG         -1.6218    2.4348   -4.5647 P.3       1 ATP         1.3273
      2 O1G        -0.7711    2.4292   -3.2988 O.co2     1 ATP        -0.8181
      3 O2G        -3.1209    2.3063   -4.3153 O.co2     1 ATP        -0.8181
      4 O3G        -1.2452    3.5206   -5.5673 O.co2     1 ATP        -0.8181
      5 PB          0.2117    0.5086   -5.8829 P.3       1 ATP         1.7707
      6 O1B         0.1777   -0.8430   -6.5332 O.2       1 ATP        -0.8474
      7 O2B         0.7105    1.7142   -6.8371 O.3       1 ATP        -0.8078
      8 O3B        -1.2149    1.0337   -5.3308 O.3       1 ATP        -0.7032
      9 PA          2.7601    0.3948   -4.4167 P.3       1 ATP         1.7252
     10 O1A         3.6056    1.3014   -5.2634 O.2       1 ATP        -0.8058
     11 O2A         2.9430   -1.1804   -4.7369 O.3       1 ATP        -0.7761
     12 O3A         1.1693    0.6252   -4.5874 O.3       1 ATP        -0.7114
     13 O5'         3.0213    0.5153   -2.8245 O.3       1 ATP        -0.5745
     14 C5'         2.2816   -0.2918   -1.9206 C.3       1 ATP         0.1981
     15 C4'         2.7248    0.0226   -0.4980 C.3       1 ATP         0.1050
     16 O4'         2.4697    1.4219   -0.2462 O.3       1 ATP        -0.3841
     17 C3'         1.9404   -0.7419    0.5596 C.3       1 ATP         0.0822
     18 O3'         2.7418   -0.8086    1.7389 O.3       1 ATP        -0.5784
     19 C2'         0.7477    0.1630    0.7858 C.3       1 ATP         0.0580
     20 O2'         0.1373   -0.0577    2.0407 O.3       1 ATP        -0.5710
     21 C1'         1.3733    1.5427    0.6747 C.3       1 ATP         0.4076
     22 N9          0.4520    2.5240    0.1767 N.pl3     1 ATP        -0.4359
     23 C8          0.5793    3.3338   -1.1209 C.ar      1 ATP         0.1755
     24 N7         -0.4807    4.1508   -1.2458 N.2       1 ATP        -0.2905
     25 C5         -1.1921    3.8572   -0.1126 C.ar      1 ATP        -0.1036
     26 C6         -2.4855    4.5203    0.2163 C.ar      1 ATP         0.4096
     27 N6         -2.9873    5.4319   -0.6020 N.pl3     1 ATP        -0.8318
     28 N1         -3.0414    4.1119    1.3596 N.pl3     1 ATP        -0.7165
     29 C2         -2.4169    3.1071    2.1904 C.ar      1 ATP         0.6120
     30 N3         -1.2928    2.5191    1.9210 N.ar      1 ATP        -0.5097
     31 C4         -0.7202    2.9326    0.7534 C.ar      1 ATP         0.2352
     32 HOB2        1.6097    1.6702   -7.2266 H         1 ATP         0.4987
     33 HOA2        2.7383   -1.5082   -5.6383 H         1 ATP         0.4629
     34 H5'1        1.2163   -0.0770   -2.0471 H         1 ATP         0.0490
     35 H5'2        2.4655   -1.3443   -2.1563 H         1 ATP         0.0490
     36 H4'         3.8040   -0.1399   -0.4044 H         1 ATP         0.1109
     37 H3'         1.6768   -1.7637    0.2732 H         1 ATP         0.0811
     38 HO3'        2.2231   -1.2979    2.3952 H         1 ATP         0.4115
     39 H2'         0.0002   -0.0084   -0.0014 H         1 ATP         0.0694
     40 HO2'       -0.1554   -0.9852    2.0577 H         1 ATP         0.4114
     41 H1'         1.7718    1.9211    1.6015 H         1 ATP         0.1324
     42 H8          1.3565    3.3309   -1.8916 H         1 ATP         0.2428
     43 HN61       -2.4952    5.6785   -1.4487 H         1 ATP         0.4700
     44 HN62       -3.8637    5.8828   -0.3819 H         1 ATP         0.4700
     45 H2         -2.9911    2.8734    3.1000 H         1 ATP         0.0755
     46 H46        -3.9253    4.5332    1.6302 H         1 ATP         0.4610
@<TRIPOS>BOND
     1    1    2 2
     2    1    3 1
     3    1    4 1
     4    1    8 1
     5    5    6 2
     6    5    7 1
     7    5    8 1
     8    5   12 1
     9    7   32 1
    10    9   10 2
    11    9   11 1
    12    9   12 1
    13    9   13 1
    14   11   33 1
    15   13   14 1
    16   14   15 1
    17   14   34 1
    18   14   35 1
    19   15   16 1
    20   15   17 1
    21   15   36 1
    22   16   21 1
    23   17   18 1
    24   17   19 1
    25   17   37 1
    26   18   38 1
    27   19   20 1
    28   19   21 1
    29   19   39 1
    30   20   40 1
    31   21   22 1
    32   21   41 1
    33   22   23 ar
    34   22   31 ar
    35   23   24 ar
    36   23   42 1
    37   24   25 ar
    38   25   26 ar
    39   25   31 ar
    40   26   27 1
    41   26   28 ar
    42   27   43 1
    43   27   44 1
    44   28   29 ar
    45   28   46 1
    46   29   30 ar
    47   29   45 1
    48   30   31 ar
@<TRIPOS>SUBSTRUCTURE
     1 ATP         1 GROUP 0 A     ****
@<TRIPOS>MOLECULE
[[[5-(6-amino-1,8-dihydropurine-6,8-diylium-7-id-9-yl)-3,4-dihydroxy-tetrahydrofuran-2-yl]methoxy-hydroxy-phosphoryl]oxy-hydroxy-phosphoryl] phosphate
   46    48     1     0     0
SMALL
USER_CHARGES

@<TRIPOS>ATOM
      1 PG          1.6243   -1.4935   -8.0132 P.3       1 ATP         1.3273
      2 O1G         2.8191   -2.3485   -8.4224 O.co2     1 ATP        -0.8181
      3 O2G         1.1587   -0.5108   -9.0825 O.co2     1 ATP        -0.8181
      4 O3G         0.4959   -2.2729   -7.3458 O.co2     1 ATP        -0.8181
      5 PB          2.8573   -0.9183   -5.3752 P.3       1 ATP         1.7707
      6 O1B         4.0977   -1.7587   -5.4499 O.2       1 ATP        -0.8474
      7 O2B         3.0453    0.5159   -4.6536 O.3       1 ATP        -0.8078
      8 O3B         2.2080   -0.5354   -6.8061 O.3       1 ATP        -0.7032
      9 PA          1.5773   -2.4670   -3.2257 P.3       1 ATP         1.7252
     10 O1A         1.9390   -3.9109   -3.4206 O.2       1 ATP        -0.8058
     11 O2A         0.0767   -2.2235   -2.6724 O.3       1 ATP        -0.7761
     12 O3A         1.6199   -1.5866   -4.5806 O.3       1 ATP        -0.7114
     13 O5'         2.5245   -1.6648   -2.1878 O.3       1 ATP        -0.5745
     14 C5'         2.2816   -0.2918   -1.9206 C.3       1 ATP         0.1981
     15 C4'         2.7248    0.0226   -0.4980 C.3       1 ATP         0.1050
     16 O4'         2.4697    1.4219   -0.2462 O.3       1 ATP        -0.3841
     17 C3'         1.9404   -0.7419    0.5596 C.3       1 ATP         0.0822
     18 O3'         2.7418   -0.8086    1.7389 O.3       1 ATP        -0.5784
     19 C2'         0.7477    0.1630    0.7858 C.3       1 ATP         0.0580
     20 O2'         0.1373   -0.0577    2.0407 O.3       1 ATP        -0.5710
     21 C1'         1.3733    1.5427    0.6747 C.3       1 ATP         0.4076
     22 N9          0.4520    2.5240    0.1767 N.pl3     1 ATP        -0.4359
     23 C8          0.1798    2.8712   -1.2933 C.ar      1 ATP         0.1755
     24 N7         -0.7494    3.8400   -1.3610 N.2       1 ATP        -0.2905
     25 C5         -1.0173    4.0603   -0.0358 C.ar      1 ATP        -0.1036
     26 C6         -2.0105    5.0717    0.4241 C.ar      1 ATP         0.4096
     27 N6         -2.6723    5.7982   -0.4628 N.pl3     1 ATP        -0.8318
     28 N1         -2.1445    5.1522    1.7502 N.pl3     1 ATP        -0.7165
     29 C2         -1.3755    4.3143    2.6427 C.ar      1 ATP         0.6120
     30 N3         -0.5075    3.4292    2.2616 N.ar      1 ATP        -0.5097
     31 C4         -0.3667    3.3425    0.9070 C.ar      1 ATP         0.2352
     32 HOB2        3.6845    1.1570   -5.0313 H         1 ATP         0.4987
     33 HOA2       -0.6828   -2.5450   -3.2033 H         1 ATP         0.4629
     34 H5'1        2.8432    0.3119   -2.6398 H         1 ATP         0.0490
     35 H5'2        1.2128   -0.0927   -2.0428 H         1 ATP         0.0490
     36 H4'         3.8040   -0.1399   -0.4044 H         1 ATP         0.1109
     37 H3'         1.6768   -1.7637    0.2732 H         1 ATP         0.0811
     38 HO3'        3.5553   -1.2733    1.4913 H         1 ATP         0.4115
     39 H2'         0.0002   -0.0084   -0.0014 H         1 ATP         0.0694
     40 HO2'       -0.1554   -0.9852    2.0577 H         1 ATP         0.4114
     41 H1'         1.7718    1.9211    1.6015 H         1 ATP         0.1324
     42 H8          0.6089    2.4651   -2.2147 H         1 ATP         0.2428
     43 HN61       -3.3458    6.4845   -0.1543 H         1 ATP         0.4700
     44 HN62       -2.5050    5.6683   -1.4502 H         1 ATP         0.4700
     45 H2         -1.5932    4.4937    3.7066 H         1 ATP         0.0755
     46 H46        -2.8098    5.8270    2.1160 H         1 ATP         0.4610
@<TRIPOS>BOND
     1    1    2 2
     2    1    3 1
     3    1    4 1
     4    1    8 1
     5    5    6 2
     6    5    7 1
     7    5    8 1
     8    5   12 1
     9    7   32 1
    10    9   10 2
    11    9   11 1
    12    9   12 1
    13    9   13 1
    14   11   33 1
    15   13   14 1
    16   14   15 1
    17   14   34 1
    18   14   35 1
    19   15   16 1
    20   15   17 1
    21   15   36 1
    22   16   21 1
    23   17   18 1
    24   17   19 1
    25   17   37 1
    26   18   38 1
    27   19   20 1
    28   19   21 1
    29   19   39 1
    30   20   40 1
    31   21   22 1
    32   21   41 1
    33   22   23 ar
    34   22   31 ar
    35   23   24 ar
    36   23   42 1
    37   24   25 ar
    38   25   26 ar
    39   25   31 ar
    40   26   27 1
    41   26   28 ar
    42   27   43 1
    43   27   44 1
    44   28   29 ar
    45   28   46 1
    46   29   30 ar
    47   29   45 1
    48   30   31 ar
@<TRIPOS>SUBSTRUCTURE
     1 ATP         1 GROUP 0 A     ****
@<TRIPOS>MOLECULE
[[[5-(6-amino-1,8-dihydropurine-6,8-diylium-7-id-9-yl)-3,4-dihydroxy-tetrahydrofuran-2-yl]methoxy-hydroxy-phosphoryl]oxy-hydroxy-phosphoryl] phosphate
   46    48     1     0     0
SMALL
USER_CHARGES

@<TRIPOS>ATOM
      1 PG         -0.3975   -1.9181   -5.2971 P.3       1 ATP         1.3273
      2 O1G         0.5287   -2.0079   -4.0888 O.co2     1 ATP        -0.8181
      3 O2G        -0.5074   -3.2085   -6.1025 O.co2     1 ATP        -0.8181
      4 O3G        -1.7349   -1.2428   -5.0119 O.co2     1 ATP        -0.8181
      5 PB          0.7994    0.6757   -6.1030 P.3       1 ATP         1.7707
      6 O1B         1.4847    1.3038   -7.2805 O.2       1 ATP        -0.8474
      7 O2B        -0.5760    1.3936   -5.6492 O.3       1 ATP        -0.8078
      8 O3B         0.3647   -0.8678   -6.3129 O.3       1 ATP        -0.7032
      9 PA          3.0909   -0.0734   -4.4162 P.3       1 ATP         1.7252
     10 O1A         4.2286    0.4196   -5.2625 O.2       1 ATP        -0.8058
     11 O2A         2.7721   -1.6510   -4.5796 O.3       1 ATP        -0.7761
     12 O3A         1.6716    0.6272   -4.7443 O.3       1 ATP        -0.7114
     13 O5'         3.2903    0.1346   -2.8241 O.3       1 ATP        -0.5745
     14 C5'         2.2816   -0.2918   -1.9206 C.3       1 ATP         0.1981
     15 C4'         2.7248    0.0226   -0.4980 C.3       1 ATP         0.1050
     16 O4'         2.4697    1.4219   -0.2462 O.3       1 ATP        -0.3841
     17 C3'         1.9404   -0.7419    0.5596 C.3       1 ATP         0.0822
     18 O3'         2.7418   -0.8086    1.7389 O.3       1 ATP        -0.5784
     19 C2'         0.7477    0.1630    0.7858 C.3       1 ATP         0.0580
     20 O2'         0.1373   -0.0577    2.0407 O.3       1 ATP        -0.5710
     21 C1'         1.3733    1.5427    0.6747 C.3       1 ATP         0.4076
     22 N9          0.4520    2.5240    0.1767 N.pl3     1 ATP        -0.4359
     23 C8          0.1798    2.8712   -1.2933 C.ar      1 ATP         0.1755
     24 N7         -0.7494    3.8400   -1.3610 N.2       1 ATP        -0.2905
     25 C5         -1.0173    4.0603   -0.0358 C.ar      1 ATP        -0.1036
     26 C6         -2.0105    5.0717    0.4241 C.ar      1 ATP         0.4096
     27 N6         -2.6723    5.7982   -0.4628 N.pl3     1 ATP        -0.8318
     28 N1         -2.1445    5.1522    1.7502 N.pl3     1 ATP        -0.7165
     29 C2         -1.3755    4.3143    2.6427 C.ar      1 ATP         0.6120
     30 N3         -0.5075    3.4292    2.2616 N.ar      1 ATP        -0.5097
     31 C4         -0.3667    3.3425    0.9070 C.ar      1 ATP         0.2352
     32 HOB2       -1.3163    1.4489   -6.2903 H         1 ATP         0.4987
     33 HOA2        3.4731   -2.3018   -4.3625 H         1 ATP         0.4629
     34 H5'1        1.3514    0.2330   -2.1577 H         1 ATP         0.0490
     35 H5'2        2.1280   -1.3678   -2.0460 H         1 ATP         0.0490
     36 H4'         3.8040   -0.1399   -0.4044 H         1 ATP         0.1109
     37 H3'         1.6768   -1.7637    0.2732 H         1 ATP         0.0811
     38 HO3'        3.5553   -1.2733    1.4913 H         1 ATP         0.4115
     39 H2'         0.0002   -0.0084   -0.0014 H         1 ATP         0.0694
     40 HO2'        0.8091    0.1203    2.7213 H         1 ATP         0.4114
     41 H1'         1.7718    1.9211    1.6015 H         1 ATP         0.1324
     42 H8          0.6089    2.4651   -2.2147 H         1 ATP         0.2428
     43 HN61       -2.5055    5.6680   -1.4503 H         1 ATP         0.4700
     44 HN62       -3.3462    6.4841   -0.1542 H         1 ATP         0.4700
     45 H2         -1.5932    4.4937    3.7066 H         1 ATP         0.0755
     46 H46        -2.8098    5.8270    2.1160 H         1 ATP         0.4610
@<TRIPOS>BOND
     1    1    2 2
     2    1    3 1
     3    1    4 1
     4    1    8 1
     5    5    6 2
     6    5    7 1
     7    5    8 1
     8    5   12 1
     9    7   32 1
    10    9   10 2
    11    9   11 1
    12    9   12 1
    13    9   13 1
    14   11   33 1
    15   13   14 1
    16   14   15 1
    17   14   34 1
    18   14   35 1
    19   15   16 1
    20   15   17 1
    21   15   36 1
    22   16   21 1
    23   17   18 1
    24   17   19 1
    25   17   37 1
    26   18   38 1
    27   19   20 1
    28   19   21 1
    29   19   39 1
    30   20   40 1
    31   21   22 1
    32   21   41 1
    33   22   23 ar
    34   22   31 ar
    35   23   24 ar
    36   23   42 1
    37   24   25 ar
    38   25   26 ar
    39   25   31 ar
    40   26   27 1
    41   26   28 ar
    42   27   43 1
    43   27   44 1
    44   28   29 ar
    45   28   46 1
    46   29   30 ar
    47   29   45 1
    48   30   31 ar
@<TRIPOS>SUBSTRUCTURE
     1 ATP         1 GROUP 0 A     ****
@<TRIPOS>MOLECULE
[[[5-(6-amino-1,8-dihydropurine-6,8-diylium-7-id-9-yl)-3,4-dihydroxy-tetrahydrofuran-2-yl]methoxy-hydroxy-phosphoryl]oxy-hydroxy-phosphoryl] phosphate
   46    48     1     0     0
SMALL
USER_CHARGES

@<TRIPOS>ATOM
      1 PG         -1.0862    0.3420   -4.9994 P.3       1 ATP         1.3273
      2 O1G        -0.1444   -0.4654   -4.1123 O.co2     1 ATP        -0.8181
      3 O2G        -1.7085   -0.4526   -6.1428 O.co2     1 ATP        -0.8181
      4 O3G        -2.0752    1.2137   -4.2324 O.co2     1 ATP        -0.8181
      5 PB          0.8586    2.5799   -5.1383 P.3       1 ATP         1.7707
      6 O1B         1.6107    3.3814   -6.1593 O.2       1 ATP        -0.8474
      7 O2B        -0.1359    3.4358   -4.1941 O.3       1 ATP        -0.8078
      8 O3B        -0.1014    1.4304   -5.7486 O.3       1 ATP        -0.7032
      9 PA          2.8894    0.6160   -4.3158 P.3       1 ATP         1.7252
     10 O1A         4.0467    1.0418   -5.1719 O.2       1 ATP        -0.8058
     11 O2A         2.0300   -0.6147   -4.9191 O.3       1 ATP        -0.7761
     12 O3A         1.7778    1.7672   -4.0877 O.3       1 ATP        -0.7114
     13 O5'         3.2903    0.1346   -2.8241 O.3       1 ATP        -0.5745
     14 C5'         2.2816   -0.2918   -1.9206 C.3       1 ATP         0.1981
     15 C4'         2.7248    0.0226   -0.4980 C.3       1 ATP         0.1050
     16 O4'         2.4697    1.4219   -0.2462 O.3       1 ATP        -0.3841
     17 C3'         1.9404   -0.7419    0.5596 C.3       1 ATP         0.0822
     18 O3'         2.7418   -0.8086    1.7389 O.3       1 ATP        -0.5784
     19 C2'         0.7477    0.1630    0.7858 C.3       1 ATP         0.0580
     20 O2'         0.1373   -0.0577    2.0407 O.3       1 ATP        -0.5710
     21 C1'         1.3733    1.5427    0.6747 C.3       1 ATP         0.4076
     22 N9          0.4520    2.5240    0.1767 N.pl3     1 ATP        -0.4359
     23 C8         -0.3054    2.4845   -1.1576 C.ar      1 ATP         0.1755
     24 N7         -1.0755    3.5806   -1.2691 N.2       1 ATP        -0.2905
     25 C5         -0.8043    4.2306   -0.0942 C.ar      1 ATP        -0.1036
     26 C6         -1.4324    5.5335    0.2646 C.ar      1 ATP         0.4096
     27 N6         -2.2885    6.1054   -0.5675 N.pl3     1 ATP        -0.8318
     28 N1         -1.0537    6.0229    1.4478 N.pl3     1 ATP        -0.7165
     29 C2         -0.1096    5.3242    2.2908 C.ar      1 ATP         0.6120
     30 N3          0.4468    4.1904    1.9960 N.ar      1 ATP        -0.5097
     31 C4          0.0631    3.6855    0.7877 C.ar      1 ATP         0.2352
     32 HOB2       -0.8654    3.9429   -4.6099 H         1 ATP         0.4987
     33 HOA2        1.5975   -0.5082   -5.7929 H         1 ATP         0.4629
     34 H5'1        1.3514    0.2330   -2.1577 H         1 ATP         0.0490
     35 H5'2        2.1280   -1.3678   -2.0460 H         1 ATP         0.0490
     36 H4'         3.8040   -0.1399   -0.4044 H         1 ATP         0.1109
     37 H3'         1.6768   -1.7637    0.2732 H         1 ATP         0.0811
     38 HO3'        2.2231   -1.2979    2.3952 H         1 ATP         0.4115
     39 H2'         0.0002   -0.0084   -0.0014 H         1 ATP         0.0694
     40 HO2'       -0.6132    0.5577    2.1063 H         1 ATP         0.4114
     41 H1'         1.7718    1.9211    1.6015 H         1 ATP         0.1324
     42 H8         -0.2991    1.7413   -1.9611 H         1 ATP         0.2428
     43 HN61       -2.5167    5.6603   -1.4447 H         1 ATP         0.4700
     44 HN62       -2.7159    6.9882   -0.3270 H         1 ATP         0.4700
     45 H2          0.1059    5.8491    3.2340 H         1 ATP         0.0755
     46 H46        -1.4532    6.9099    1.7401 H         1 ATP         0.4610
@<TRIPOS>BOND
     1    1    2 2
     2    1    3 1
     3    1    4 1
     4    1    8 1
     5    5    6 2
     6    5    7 1
     7    5    8 1
     8    5   12 1
     9    7   32 1
    10    9   10 2
    11    9   11 1
    12    9   12 1
    13    9   13 1
    14   11   33 1
    15   13   14 1
    16   14   15 1
    17   14   34 1
    18   14   35 1
    19   15   16 1
    20   15   17 1
    21   15   36 1
    22   16   21 1
    23   17   18 1
    24   17   19 1
    25   17   37 1
    26   18   38 1
    27   19   20 1
    28   19   21 1
    29   19   39 1
    30   20   40 1
    31   21   22 1
    32   21   41 1
    33   22   23 ar
    34   22   31 ar
    35   23   24 ar
    36   23   42 1
    37   24   25 ar
    38   25   26 ar
    39   25   31 ar
    40   26   27 1
    41   26   28 ar
    42   27   43 1
    43   27   44 1
    44   28   29 ar
    45   28   46 1
    46   29   30 ar
    47   29   45 1
    48   30   31 ar
@<TRIPOS>SUBSTRUCTURE
     1 ATP         1 GROUP 0 A     ****
@<TRIPOS>MOLECULE
[[[5-(6-amino-1,8-dihydropurine-6,8-diylium-7-id-9-yl)-3,4-dihydroxy-tetrahydrofuran-2-yl]methoxy-hydroxy-phosphoryl]oxy-hydroxy-phosphoryl] phosphate
   46    48     1     0     0
SMALL
USER_CHARGES

@<TRIPOS>ATOM
      1 PG          0.4791    0.4529   -6.0943 P.3       1 ATP         1.3273
      2 O1G         0.4611    0.2971   -4.5772 O.co2     1 ATP        -0.8181
      3 O2G        -0.8841    0.2927   -6.7590 O.co2     1 ATP        -0.8181
      4 O3G         1.2803    1.6519   -6.5910 O.co2     1 ATP        -0.8181
      5 PB          2.8662   -1.2978   -6.3106 P.3       1 ATP         1.7707
      6 O1B         3.3011   -2.5616   -6.9920 O.2       1 ATP        -0.8474
      7 O2B         3.7318    0.0146   -6.6863 O.3       1 ATP        -0.8078
      8 O3B         1.3453   -0.8454   -6.6233 O.3       1 ATP        -0.7032
      9 PA          2.1491   -2.2865   -3.6337 P.3       1 ATP         1.7252
     10 O1A         2.4550   -3.7479   -3.7889 O.2       1 ATP        -0.8058
     11 O2A         0.5912   -1.9045   -3.8443 O.3       1 ATP        -0.7761
     12 O3A         2.9105   -1.3357   -4.6964 O.3       1 ATP        -0.7114
     13 O5'         2.5245   -1.6648   -2.1878 O.3       1 ATP        -0.5745
     14 C5'         2.2816   -0.2918   -1.9206 C.3       1 ATP         0.1981
     15 C4'         2.7248    0.0226   -0.4980 C.3       1 ATP         0.1050
     16 O4'         2.4697    1.4219   -0.2462 O.3       1 ATP        -0.3841
     17 C3'         1.9404   -0.7419    0.5596 C.3       1 ATP         0.0822
     18 O3'         2.7418   -0.8086    1.7389 O.3       1 ATP        -0.5784
     19 C2'         0.7477    0.1630    0.7858 C.3       1 ATP         0.0580
     20 O2'         0.1373   -0.0577    2.0407 O.3       1 ATP        -0.5710
     21 C1'         1.3733    1.5427    0.6747 C.3       1 ATP         0.4076
     22 N9          0.4520    2.5240    0.1767 N.pl3     1 ATP        -0.4359
     23 C8         -0.3054    2.4845   -1.1576 C.ar      1 ATP         0.1755
     24 N7         -1.0755    3.5806   -1.2691 N.2       1 ATP        -0.2905
     25 C5         -0.8043    4.2306   -0.0942 C.ar      1 ATP        -0.1036
     26 C6         -1.4324    5.5335    0.2646 C.ar      1 ATP         0.4096
     27 N6         -2.2885    6.1054   -0.5675 N.pl3     1 ATP        -0.8318
     28 N1         -1.0537    6.0229    1.4478 N.pl3     1 ATP        -0.7165
     29 C2         -0.1096    5.3242    2.2908 C.ar      1 ATP         0.6120
     30 N3          0.4468    4.1904    1.9960 N.ar      1 ATP        -0.5097
     31 C4          0.0631    3.6855    0.7877 C.ar      1 ATP         0.2352
     32 HOB2        3.7674    0.3078   -7.6217 H         1 ATP         0.4987
     33 HOA2       -0.0803   -2.3081   -3.2542 H         1 ATP         0.4629
     34 H5'1        2.8432    0.3119   -2.6398 H         1 ATP         0.0490
     35 H5'2        1.2128   -0.0927   -2.0428 H         1 ATP         0.0490
     36 H4'         3.8040   -0.1399   -0.4044 H         1 ATP         0.1109
     37 H3'         1.6768   -1.7637    0.2732 H         1 ATP         0.0811
     38 HO3'        2.2231   -1.2979    2.3952 H         1 ATP         0.4115
     39 H2'         0.0002   -0.0084   -0.0014 H         1 ATP         0.0694
     40 HO2'       -0.1554   -0.9852    2.0577 H         1 ATP         0.4114
     41 H1'         1.7718    1.9211    1.6015 H         1 ATP         0.1324
     42 H8         -0.2991    1.7413   -1.9611 H         1 ATP         0.2428
     43 HN61       -2.5167    5.6603   -1.4447 H         1 ATP         0.4700
     44 HN62       -2.7159    6.9882   -0.3270 H         1 ATP         0.4700
     45 H2          0.1059    5.8491    3.2340 H         1 ATP         0.0755
     46 H46        -1.4532    6.9099    1.7401 H         1 ATP         0.4610
@<TRIPOS>BOND
     1    1    2 2
     2    1    3 1
     3    1    4 1
     4    1    8 1
     5    5    6 2
     6    5    7 1
     7    5    8 1
     8    5   12 1
     9    7   32 1
    10    9   10 2
    11    9   11 1
    12    9   12 1
    13    9   13 1
    14   11   33 1
    15   13   14 1
    16   14   15 1
    17   14   34 1
    18   14   35 1
    19   15   16 1
    20   15   17 1
    21   15   36 1
    22   16   21 1
    23   17   18 1
    24   17   19 1
    25   17   37 1
    26   18   38 1
    27   19   20 1
    28   19   21 1
    29   19   39 1
    30   20   40 1
    31   21   22 1
    32   21   41 1
    33   22   23 ar
    34   22   31 ar
    35   23   24 ar
    36   23   42 1
    37   24   25 ar
    38   25   26 ar
    39   25   31 ar
    40   26   27 1
    41   26   28 ar
    42   27   43 1
    43   27   44 1
    44   28   29 ar
    45   28   46 1
    46   29   30 ar
    47   29   45 1
    48   30   31 ar
@<TRIPOS>SUBSTRUCTURE
     1 ATP         1 GROUP 0 A     ****
@<TRIPOS>MOLECULE
[[[5-(6-amino-1,8-dihydropurine-6,8-diylium-7-id-9-yl)-3,4-dihydroxy-tetrahydrofuran-2-yl]methoxy-hydroxy-phosphoryl]oxy-hydroxy-phosphoryl] phosphate
   46    48     1     0     0
SMALL
USER_CHARGES

@<TRIPOS>ATOM
      1 PG          1.0392   -3.1217   -5.4270 P.3       1 ATP         1.3273
      2 O1G         1.9922   -2.7374   -4.2999 O.co2     1 ATP        -0.8181
      3 O2G         1.6229   -4.1051   -6.4360 O.co2     1 ATP        -0.8181
      4 O3G        -0.3726   -3.4650   -4.9634 O.co2     1 ATP        -0.8181
      5 PB          0.2718   -0.2833   -5.8329 P.3       1 ATP         1.7707
      6 O1B         0.2503    0.7530   -6.9174 O.2       1 ATP        -0.8474
      7 O2B        -1.1710   -0.6349   -5.1943 O.3       1 ATP        -0.8078
      8 O3B         0.8439   -1.7274   -6.2834 O.3       1 ATP        -0.7032
      9 PA          2.7601    0.3948   -4.4167 P.3       1 ATP         1.7252
     10 O1A         3.2218    1.5752   -5.2211 O.2       1 ATP        -0.8058
     11 O2A         3.4500   -1.0079   -4.8332 O.3       1 ATP        -0.7761
     12 O3A         1.1793    0.0835   -4.5480 O.3       1 ATP        -0.7114
     13 O5'         3.0213    0.5153   -2.8245 O.3       1 ATP        -0.5745
     14 C5'         2.2816   -0.2918   -1.9206 C.3       1 ATP         0.1981
     15 C4'         2.7248    0.0226   -0.4980 C.3       1 ATP         0.1050
     16 O4'         2.4697    1.4219   -0.2462 O.3       1 ATP        -0.3841
     17 C3'         1.9404   -0.7419    0.5596 C.3       1 ATP         0.0822
     18 O3'         2.7418   -0.8086    1.7389 O.3       1 ATP        -0.5784
     19 C2'         0.7477    0.1630    0.7858 C.3       1 ATP         0.0580
     20 O2'         0.1373   -0.0577    2.0407 O.3       1 ATP        -0.5710
     21 C1'         1.3733    1.5427    0.6747 C.3       1 ATP         0.4076
     22 N9          0.4520    2.5240    0.1767 N.pl3     1 ATP        -0.4359
     23 C8          0.1798    2.8712   -1.2933 C.ar      1 ATP         0.1755
     24 N7         -0.7494    3.8400   -1.3610 N.2       1 ATP        -0.2905
     25 C5         -1.0173    4.0603   -0.0358 C.ar      1 ATP        -0.1036
     26 C6         -2.0105    5.0717    0.4241 C.ar      1 ATP         0.4096
     27 N6         -2.6723    5.7982   -0.4628 N.pl3     1 ATP        -0.8318
     28 N1         -2.1445    5.1522    1.7502 N.pl3     1 ATP        -0.7165
     29 C2         -1.3755    4.3143    2.6427 C.ar      1 ATP         0.6120
     30 N3         -0.5075    3.4292    2.2616 N.ar      1 ATP        -0.5097
     31 C4         -0.3667    3.3425    0.9070 C.ar      1 ATP         0.2352
     32 HOB2       -1.2232   -1.3055   -4.4803 H         1 ATP         0.4987
     33 HOA2        3.3358   -1.3394   -5.7492 H         1 ATP         0.4629
     34 H5'1        1.2163   -0.0770   -2.0471 H         1 ATP         0.0490
     35 H5'2        2.4655   -1.3443   -2.1563 H         1 ATP         0.0490
     36 H4'         3.8040   -0.1399   -0.4044 H         1 ATP         0.1109
     37 H3'         1.6768   -1.7637    0.2732 H         1 ATP         0.0811
     38 HO3'        2.2231   -1.2979    2.3952 H         1 ATP         0.4115
     39 H2'         0.0002   -0.0084   -0.0014 H         1 ATP         0.0694
     40 HO2'       -0.1554   -0.9852    2.0577 H         1 ATP         0.4114
     41 H1'         1.7718    1.9211    1.6015 H         1 ATP         0.1324
     42 H8          0.6089    2.4651   -2.2147 H         1 ATP         0.2428
     43 HN61       -2.5055    5.6680   -1.4503 H         1 ATP         0.4700
     44 HN62       -3.3462    6.4841   -0.1542 H         1 ATP         0.4700
     45 H2         -1.5932    4.4937    3.7066 H         1 ATP         0.0755
     46 H46        -2.8098    5.8270    2.1160 H         1 ATP         0.4610
@<TRIPOS>BOND
     1    1    2 2
     2    1    3 1
     3    1    4 1
     4    1    8 1
     5    5    6 2
     6    5    7 1
     7    5    8 1
     8    5   12 1
     9    7   32 1
    10    9   10 2
    11    9   11 1
    12    9   12 1
    13    9   13 1
    14   11   33 1
    15   13   14 1
    16   14   15 1
    17   14   34 1
    18   14   35 1
    19   15   16 1
    20   15   17 1
    21   15   36 1
    22   16   21 1
    23   17   18 1
    24   17   19 1
    25   17   37 1
    26   18   38 1
    27   19   20 1
    28   19   21 1
    29   19   39 1
    30   20   40 1
    31   21   22 1
    32   21   41 1
    33   22   23 ar
    34   22   31 ar
    35   23   24 ar
    36   23   42 1
    37   24   25 ar
    38   25   26 ar
    39   25   31 ar
    40   26   27 1
    41   26   28 ar
    42   27   43 1
    43   27   44 1
    44   28   29 ar
    45   28   46 1
    46   29   30 ar
    47   29   45 1
    48   30   31 ar
@<TRIPOS>SUBSTRUCTURE
     1 ATP         1 GROUP 0 A     ****
@<TRIPOS>MOLECULE
[[[5-(6-amino-1,8-dihydropurine-6,8-diylium-7-id-9-yl)-3,4-dihydroxy-tetrahydrofuran-2-yl]methoxy-hydroxy-phosphoryl]oxy-hydroxy-phosphoryl] phosphate
   46    48     1     0     0
SMALL
USER_CHARGES

@<TRIPOS>ATOM
      1 PG         -0.5032    2.3156   -6.9318 P.3       1 ATP         1.3273
      2 O1G        -1.6471    1.3835   -7.3174 O.co2     1 ATP        -0.8181
      3 O2G         0.2382    2.9248   -8.1172 O.co2     1 ATP        -0.8181
      4 O3G        -0.8522    3.3133   -5.8324 O.co2     1 ATP        -0.8181
      5 PB          0.4909    0.3700   -4.9227 P.3       1 ATP         1.7707
      6 O1B         0.1611    1.0843   -3.6454 O.2       1 ATP        -0.8474
      7 O2B        -0.5802   -0.7533   -5.3744 O.3       1 ATP        -0.8078
      8 O3B         0.6057    1.3228   -6.2245 O.3       1 ATP        -0.7032
      9 PA          3.3425   -0.0254   -4.3152 P.3       1 ATP         1.7252
     10 O1A         4.1312    0.9222   -5.1718 O.2       1 ATP        -0.8058
     11 O2A         4.0517   -1.4601   -4.0794 O.3       1 ATP        -0.7761
     12 O3A         1.8989   -0.4216   -4.9250 O.3       1 ATP        -0.7114
     13 O5'         3.0213    0.5153   -2.8245 O.3       1 ATP        -0.5745
     14 C5'         2.2816   -0.2918   -1.9206 C.3       1 ATP         0.1981
     15 C4'         2.7248    0.0226   -0.4980 C.3       1 ATP         0.1050
     16 O4'         2.4697    1.4219   -0.2462 O.3       1 ATP        -0.3841
     17 C3'         1.9404   -0.7419    0.5596 C.3       1 ATP         0.0822
     18 O3'         2.7418   -0.8086    1.7389 O.3       1 ATP        -0.5784
     19 C2'         0.7477    0.1630    0.7858 C.3       1 ATP         0.0580
     20 O2'         0.1373   -0.0577    2.0407 O.3       1 ATP        -0.5710
     21 C1'         1.3733    1.5427    0.6747 C.3       1 ATP         0.4076
     22 N9          0.4520    2.5240    0.1767 N.pl3     1 ATP        -0.4359
     23 C8          0.1798    2.8712   -1.2933 C.ar      1 ATP         0.1755
     24 N7         -0.7494    3.8400   -1.3610 N.2       1 ATP        -0.2905
     25 C5         -1.0173    4.0603   -0.0358 C.ar      1 ATP        -0.1036
     26 C6         -2.0105    5.0717    0.4241 C.ar      1 ATP         0.4096
     27 N6         -2.6723    5.7982   -0.4628 N.pl3     1 ATP        -0.8318
     28 N1         -2.1445    5.1522    1.7502 N.pl3     1 ATP        -0.7165
     29 C2         -1.3755    4.3143    2.6427 C.ar      1 ATP         0.6120
     30 N3         -0.5075    3.4292    2.2616 N.ar      1 ATP        -0.5097
     31 C4         -0.3667    3.3425    0.9070 C.ar      1 ATP         0.2352
     32 HOB2       -1.5079   -0.4835   -5.5438 H         1 ATP         0.4987
     33 HOA2        4.2546   -2.0227   -4.8568 H         1 ATP         0.4629
     34 H5'1        1.2163   -0.0770   -2.0471 H         1 ATP         0.0490
     35 H5'2        2.4655   -1.3443   -2.1563 H         1 ATP         0.0490
     36 H4'         3.8040   -0.1399   -0.4044 H         1 ATP         0.1109
     37 H3'         1.6768   -1.7637    0.2732 H         1 ATP         0.0811
     38 HO3'        3.5553   -1.2733    1.4913 H         1 ATP         0.4115
     39 H2'         0.0002   -0.0084   -0.0014 H         1 ATP         0.0694
     40 HO2'       -0.6132    0.5577    2.1063 H         1 ATP         0.4114
     41 H1'         1.7718    1.9211    1.6015 H         1 ATP         0.1324
     42 H8          0.6089    2.4651   -2.2147 H         1 ATP         0.2428
     43 HN61       -3.3458    6.4845   -0.1543 H         1 ATP         0.4700
     44 HN62       -2.5050    5.6683   -1.4502 H         1 ATP         0.4700
     45 H2         -1.5932    4.4937    3.7066 H         1 ATP         0.0755
     46 H46        -2.8098    5.8270    2.1160 H         1 ATP         0.4610
@<TRIPOS>BOND
     1    1    2 2
     2    1    3 1
     3    1    4 1
     4    1    8 1
     5    5    6 2
     6    5    7 1
     7    5    8 1
     8    5   12 1
     9    7   32 1
    10    9   10 2
    11    9   11 1
    12    9   12 1
    13    9   13 1
    14   11   33 1
    15   13   14 1
    16   14   15 1
    17   14   34 1
    18   14   35 1
    19   15   16 1
    20   15   17 1
    21   15   36 1
    22   16   21 1
    23   17   18 1
    24   17   19 1
    25   17   37 1
    26   18   38 1
    27   19   20 1
    28   19   21 1
    29   19   39 1
    30   20   40 1
    31   21   22 1
    32   21   41 1
    33   22   23 ar
    34   22   31 ar
    35   23   24 ar
    36   23   42 1
    37   24   25 ar
    38   25   26 ar
    39   25   31 ar
    40   26   27 1
    41   26   28 ar
    42   27   43 1
    43   27   44 1
    44   28   29 ar
    45   28   46 1
    46   29   30 ar
    47   29   45 1
    48   30   31 ar
@<TRIPOS>SUBSTRUCTURE
     1 ATP         1 GROUP 0 A     ****
@<TRIPOS>MOLECULE
[[[5-(6-amino-1,8-dihydropurine-6,8-diylium-7-id-9-yl)-3,4-dihydroxy-tetrahydrofuran-2-yl]methoxy-hydroxy-phosphoryl]oxy-hydroxy-phosphoryl] phosphate
   46    48     1     0     0
SMALL
USER_CHARGES

@<TRIPOS>ATOM
      1 PG          2.6302   -4.6956   -3.2277 P.3       1 ATP         1.3273
      2 O1G         2.7796   -3.5073   -2.2835 O.co2     1 ATP        -0.8181
      3 O2G         3.5126   -5.8899   -2.8799 O.co2     1 ATP        -0.8181
      4 O3G         1.1851   -5.0590   -3.5529 O.co2     1 ATP        -0.8181
      5 PB          2.7698   -2.9132   -5.5970 P.3       1 ATP         1.7707
      6 O1B         3.5788   -2.7320   -6.8474 O.2       1 ATP        -0.8474
      7 O2B         1.1953   -3.1908   -5.8353 O.3       1 ATP        -0.8078
      8 O3B         3.2307   -4.1496   -4.6620 O.3       1 ATP        -0.7032
      9 PA          4.0068   -0.9375   -3.8015 P.3       1 ATP         1.7252
     10 O1A         5.0551   -0.3602   -4.7078 O.2       1 ATP        -0.8058
     11 O2A         4.5475   -2.0921   -2.8057 O.3       1 ATP        -0.7761
     12 O3A         2.7870   -1.6597   -4.5783 O.3       1 ATP        -0.7114
     13 O5'         3.2903    0.1346   -2.8241 O.3       1 ATP        -0.5745
     14 C5'         2.2816   -0.2918   -1.9206 C.3       1 ATP         0.1981
     15 C4'         2.7248    0.0226   -0.4980 C.3       1 ATP         0.1050
     16 O4'         2.4697    1.4219   -0.2462 O.3       1 ATP        -0.3841
     17 C3'         1.9404   -0.7419    0.5596 C.3       1 ATP         0.0822
     18 O3'         2.7418   -0.8086    1.7389 O.3       1 ATP        -0.5784
     19 C2'         0.7477    0.1630    0.7858 C.3       1 ATP         0.0580
     20 O2'         0.1373   -0.0577    2.0407 O.3       1 ATP        -0.5710
     21 C1'         1.3733    1.5427    0.6747 C.3       1 ATP         0.4076
     22 N9          0.4520    2.5240    0.1767 N.pl3     1 ATP        -0.4359
     23 C8          0.1798    2.8712   -1.2933 C.ar      1 ATP         0.1755
     24 N7         -0.7494    3.8400   -1.3610 N.2       1 ATP        -0.2905
     25 C5         -1.0173    4.0603   -0.0358 C.ar      1 ATP        -0.1036
     26 C6         -2.0105    5.0717    0.4241 C.ar      1 ATP         0.4096
     27 N6         -2.6723    5.7982   -0.4628 N.pl3     1 ATP        -0.8318
     28 N1         -2.1445    5.1522    1.7502 N.pl3     1 ATP        -0.7165
     29 C2         -1.3755    4.3143    2.6427 C.ar      1 ATP         0.6120
     30 N3         -0.5075    3.4292    2.2616 N.ar      1 ATP        -0.5097
     31 C4         -0.3667    3.3425    0.9070 C.ar      1 ATP         0.2352
     32 HOB2        0.9253   -3.9808   -6.3502 H         1 ATP         0.4987
     33 HOA2        5.2586   -1.8729   -2.1667 H         1 ATP         0.4629
     34 H5'1        1.3514    0.2330   -2.1577 H         1 ATP         0.0490
     35 H5'2        2.1280   -1.3678   -2.0460 H         1 ATP         0.0490
     36 H4'         3.8040   -0.1399   -0.4044 H         1 ATP         0.1109
     37 H3'         1.6768   -1.7637    0.2732 H         1 ATP         0.0811
     38 HO3'        2.2231   -1.2979    2.3952 H         1 ATP         0.4115
     39 H2'         0.0002   -0.0084   -0.0014 H         1 ATP         0.0694
     40 HO2'       -0.6132    0.5577    2.1063 H         1 ATP         0.4114
     41 H1'         1.7718    1.9211    1.6015 H         1 ATP         0.1324
     42 H8          0.6089    2.4651   -2.2147 H         1 ATP         0.2428
     43 HN61       -2.5055    5.6680   -1.4503 H         1 ATP         0.4700
     44 HN62       -3.3462    6.4841   -0.1542 H         1 ATP         0.4700
     45 H2         -1.5932    4.4937    3.7066 H         1 ATP         0.0755
     46 H46        -2.8098    5.8270    2.1160 H         1 ATP         0.4610
@<TRIPOS>BOND
     1    1    2 2
     2    1    3 1
     3    1    4 1
     4    1    8 1
     5    5    6 2
     6    5    7 1
     7    5    8 1
     8    5   12 1
     9    7   32 1
    10    9   10 2
    11    9   11 1
    12    9   12 1
    13    9   13 1
    14   11   33 1
    15   13   14 1
    16   14   15 1
    17   14   34 1
    18   14   35 1
    19   15   16 1
    20   15   17 1
    21   15   36 1
    22   16   21 1
    23   17   18 1
    24   17   19 1
    25   17   37 1
    26   18   38 1
    27   19   20 1
    28   19   21 1
    29   19   39 1
    30   20   40 1
    31   21   22 1
    32   21   41 1
    33   22   23 ar
    34   22   31 ar
    35   23   24 ar
    36   23   42 1
    37   24   25 ar
    38   25   26 ar
    39   25   31 ar
    40   26   27 1
    41   26   28 ar
    42   27   43 1
    43   27   44 1
    44   28   29 ar
    45   28   46 1
    46   29   30 ar
    47   29   45 1
    48   30   31 ar
@<TRIPOS>SUBSTRUCTURE
     1 ATP         1 GROUP 0 A     ****
@<TRIPOS>MOLECULE
[[[5-(6-amino-1,8-dihydropurine-6,8-diylium-7-id-9-yl)-3,4-dihydroxy-tetrahydrofuran-2-yl]methoxy-hydroxy-phosphoryl]oxy-hydroxy-phosphoryl] phosphate
   46    48     1     0     0
SMALL
USER_CHARGES

@<TRIPOS>ATOM
      1 PG          3.7181    4.3793   -6.6404 P.3       1 ATP         1.3273
      2 O1G         2.4616    4.9816   -7.2603 O.co2     1 ATP        -0.8181
      3 O2G         4.7821    3.9658   -7.6517 O.co2     1 ATP        -0.8181
      4 O3G         4.2598    5.1553   -5.4443 O.co2     1 ATP        -0.8181
      5 PB          2.0895    2.6586   -4.8525 P.3       1 ATP         1.7707
      6 O1B         2.3587    3.2944   -3.5206 O.2       1 ATP        -0.8474
      7 O2B         0.7070    3.1094   -5.5586 O.3       1 ATP        -0.8078
      8 O3B         3.2037    2.9570   -5.9861 O.3       1 ATP        -0.7032
      9 PA          3.0909   -0.0734   -4.4162 P.3       1 ATP         1.7252
     10 O1A         4.3584   -0.0336   -5.2196 O.2       1 ATP        -0.8058
     11 O2A         2.2646   -1.4586   -4.5412 O.3       1 ATP        -0.7761
     12 O3A         2.0044    1.0456   -4.8406 O.3       1 ATP        -0.7114
     13 O5'         3.2903    0.1346   -2.8241 O.3       1 ATP        -0.5745
     14 C5'         2.2816   -0.2918   -1.9206 C.3       1 ATP         0.1981
     15 C4'         2.7248    0.0226   -0.4980 C.3       1 ATP         0.1050
     16 O4'         2.4697    1.4219   -0.2462 O.3       1 ATP        -0.3841
     17 C3'         1.9404   -0.7419    0.5596 C.3       1 ATP         0.0822
     18 O3'         2.7418   -0.8086    1.7389 O.3       1 ATP        -0.5784
     19 C2'         0.7477    0.1630    0.7858 C.3       1 ATP         0.0580
     20 O2'         0.1373   -0.0577    2.0407 O.3       1 ATP        -0.5710
     21 C1'         1.3733    1.5427    0.6747 C.3       1 ATP         0.4076
     22 N9          0.4520    2.5240    0.1767 N.pl3     1 ATP        -0.4359
     23 C8          0.5793    3.3338   -1.1209 C.ar      1 ATP         0.1755
     24 N7         -0.4807    4.1508   -1.2458 N.2       1 ATP        -0.2905
     25 C5         -1.1921    3.8572   -0.1126 C.ar      1 ATP        -0.1036
     26 C6         -2.4855    4.5203    0.2163 C.ar      1 ATP         0.4096
     27 N6         -2.9873    5.4319   -0.6020 N.pl3     1 ATP        -0.8318
     28 N1         -3.0414    4.1119    1.3596 N.pl3     1 ATP        -0.7165
     29 C2         -2.4169    3.1071    2.1904 C.ar      1 ATP         0.6120
     30 N3         -1.2928    2.5191    1.9210 N.ar      1 ATP        -0.5097
     31 C4         -0.7202    2.9326    0.7534 C.ar      1 ATP         0.2352
     32 HOB2        0.5698    4.0571   -5.7713 H         1 ATP         0.4987
     33 HOA2        2.6963   -2.2952   -4.2661 H         1 ATP         0.4629
     34 H5'1        1.3514    0.2330   -2.1577 H         1 ATP         0.0490
     35 H5'2        2.1280   -1.3678   -2.0460 H         1 ATP         0.0490
     36 H4'         3.8040   -0.1399   -0.4044 H         1 ATP         0.1109
     37 H3'         1.6768   -1.7637    0.2732 H         1 ATP         0.0811
     38 HO3'        2.2231   -1.2979    2.3952 H         1 ATP         0.4115
     39 H2'         0.0002   -0.0084   -0.0014 H         1 ATP         0.0694
     40 HO2'       -0.1554   -0.9852    2.0577 H         1 ATP         0.4114
     41 H1'         1.7718    1.9211    1.6015 H         1 ATP         0.1324
     42 H8          1.3565    3.3309   -1.8916 H         1 ATP         0.2428
     43 HN61       -2.4952    5.6785   -1.4487 H         1 ATP         0.4700
     44 HN62       -3.8637    5.8828   -0.3819 H         1 ATP         0.4700
     45 H2         -2.9911    2.8734    3.1000 H         1 ATP         0.0755
     46 H46        -3.9253    4.5332    1.6302 H         1 ATP         0.4610
@<TRIPOS>BOND
     1    1    2 2
     2    1    3 1
     3    1    4 1
     4    1    8 1
     5    5    6 2
     6    5    7 1
     7    5    8 1
     8    5   12 1
     9    7   32 1
    10    9   10 2
    11    9   11 1
    12    9   12 1
    13    9   13 1
    14   11   33 1
    15   13   14 1
    16   14   15 1
    17   14   34 1
    18   14   35 1
    19   15   16 1
    20   15   17 1
    21   15   36 1
    22   16   21 1
    23   17   18 1
    24   17   19 1
    25   17   37 1
    26   18   38 1
    27   19   20 1
    28   19   21 1
    29   19   39 1
    30   20   40 1
    31   21   22 1
    32   21   41 1
    33   22   23 ar
    34   22   31 ar
    35   23   24 ar
    36   23   42 1
    37   24   25 ar
    38   25   26 ar
    39   25   31 ar
    40   26   27 1
    41   26   28 ar
    42   27   43 1
    43   27   44 1
    44   28   29 ar
    45   28   46 1
    46   29   30 ar
    47   29   45 1
    48   30   31 ar
@<TRIPOS>SUBSTRUCTURE
     1 ATP         1 GROUP 0 A     ****
