@<TRIPOS>MOLECULE
[[[5-(6-aminopurin-9-yl)-3,4-dihydroxy-tetrahydrofuran-2-yl]methoxy-oxido-phosphoryl]oxy-oxido-phosphoryl] hydrogen phosphate
   44    46     1     0     0
SMALL
USER_CHARGES

@<TRIPOS>ATOM
      1 PG         46.1070   45.1820   56.9500 P.3       1 ATP         1.5607
      2 O1G        45.7790   46.3300   56.0520 O.2       1 ATP        -0.8960
      3 O2G        47.3820   44.4970   56.6260 O.3       1 ATP        -0.8960
      4 O3G        45.9720   45.5300   58.3750 O.3       1 ATP        -0.8239
      5 PB         43.9110   43.7400   55.6550 P.3       1 ATP         1.6966
      6 O1B        42.9750   42.7220   55.9860 O.2       1 ATP        -0.8971
      7 O2B        43.6030   44.7670   54.6780 O.3       1 ATP        -0.8971
      8 O3B        45.0410   44.0150   56.7380 O.3       1 ATP        -0.8198
      9 PA         45.2280   42.6690   53.2570 P.3       1 ATP         1.5948
     10 O1A        46.3800   43.3960   52.7880 O.2       1 ATP        -0.8887
     11 O2A        44.1830   42.1900   52.3510 O.3       1 ATP        -0.8887
     12 O3A        44.9170   42.7160   54.7890 O.3       1 ATP        -0.8116
     13 O5'        46.1720   41.5680   53.3020 O.3       1 ATP        -0.5653
     14 C5'        46.6090   40.4220   53.5420 C.3       1 ATP         0.2147
     15 C4'        46.5200   38.9890   53.3640 C.3       1 ATP         0.0822
     16 O4'        46.7850   38.9080   51.9480 O.3       1 ATP        -0.3968
     17 C3'        47.8080   38.8740   54.1120 C.3       1 ATP         0.0777
     18 O3'        47.7130   38.3570   55.4230 O.3       1 ATP        -0.6053
     19 C2'        48.7190   38.1160   53.1390 C.3       1 ATP         0.1029
     20 O2'        48.6320   36.7370   53.4250 O.3       1 ATP        -0.6003
     21 C1'        48.1330   38.4090   51.7210 C.3       1 ATP         0.3969
     22 N9         48.8460   39.4640   50.9860 N.pl3     1 ATP        -0.6765
     23 C8         48.6160   40.8420   50.9450 C.ar      1 ATP         0.5773
     24 N7         49.4250   41.4890   50.1650 N.ar      1 ATP        -0.5856
     25 C5         50.2320   40.4700   49.6640 C.ar      1 ATP        -0.2039
     26 C6         51.3080   40.4660   48.7310 C.ar      1 ATP         0.7035
     27 N6         51.7210   41.5680   48.1290 N.pl3     1 ATP        -0.9299
     28 N1         51.9120   39.2740   48.4470 N.ar      1 ATP        -0.8060
     29 C2         51.4930   38.1510   49.0290 C.ar      1 ATP         0.6467
     30 N3         50.4910   38.0160   49.9000 N.ar      1 ATP        -0.6985
     31 C4         49.8920   39.2530   50.1710 C.ar      1 ATP         0.5682
     32 HOG3       46.5992   46.3224   58.8095 H         1 ATP         0.4411
     33 H5'1       47.6492   40.3457   53.1926 H         1 ATP         0.0359
     34 H5'2       46.5714   40.2346   54.6253 H         1 ATP         0.0359
     35 H4'        45.6654   38.3452   53.6190 H         1 ATP         0.0912
     36 H3'        48.2020   39.8423   54.4542 H         1 ATP         0.0608
     37 HO3'       47.0751   38.8571   56.1666 H         1 ATP         0.4331
     38 H2'        49.7910   38.3380   53.2466 H         1 ATP         0.0715
     39 HO2'       49.0003   36.3505   54.3868 H         1 ATP         0.4282
     40 H1'        48.1676   37.5175   51.0776 H         1 ATP         0.0952
     41 H8         47.8360   41.3900   51.4990 H         1 ATP         0.1205
     42 HN61       51.2389   42.5309   48.3533 H         1 ATP         0.4093
     43 HN62       52.5468   41.5221   47.4038 H         1 ATP         0.4093
     44 H2         52.0360   37.2290   48.7590 H         1 ATP         0.0326
@<TRIPOS>BOND
     1    1    2 2
     2    1    3 1
     3    1    4 1
     4    1    8 1
     5    4   32 1
     6    5    6 2
     7    5    7 1
     8    5    8 1
     9    5   12 1
    10    9   10 2
    11    9   11 1
    12    9   12 1
    13    9   13 1
    14   13   14 1
    15   14   15 1
    16   14   33 1
    17   14   34 1
    18   15   16 1
    19   15   17 1
    20   15   35 1
    21   16   21 1
    22   17   18 1
    23   17   19 1
    24   17   36 1
    25   18   37 1
    26   19   20 1
    27   19   21 1
    28   19   38 1
    29   20   39 1
    30   21   22 1
    31   21   40 1
    32   22   23 ar
    33   22   31 ar
    34   23   24 ar
    35   23   41 1
    36   24   25 ar
    37   25   26 ar
    38   25   31 ar
    39   26   27 1
    40   26   28 ar
    41   27   42 1
    42   27   43 1
    43   28   29 ar
    44   29   30 ar
    45   29   44 1
    46   30   31 ar
@<TRIPOS>SUBSTRUCTURE
     1 ATP         1 GROUP   0 A     ****
@<TRIPOS>MOLECULE
[[[5-(6-aminopurin-9-yl)-3,4-dihydroxy-tetrahydrofuran-2-yl]methoxy-hydroxy-phosphoryl]oxy-oxido-phosphoryl] hydrogen phosphate
   45    47     1     0     0
SMALL
USER_CHARGES

@<TRIPOS>ATOM
      1 PG         46.1070   45.1820   56.9500 P.3       1 ATP         1.5618
      2 O1G        45.7790   46.3300   56.0520 O.2       1 ATP        -0.8672
      3 O2G        47.3820   44.4970   56.6260 O.3       1 ATP        -0.8672
      4 O3G        45.9720   45.5300   58.3750 O.3       1 ATP        -0.7955
      5 PB         43.9110   43.7400   55.6550 P.3       1 ATP         1.6760
      6 O1B        42.9750   42.7220   55.9860 O.2       1 ATP        -0.8629
      7 O2B        43.6030   44.7670   54.6780 O.3       1 ATP        -0.8629
      8 O3B        45.0410   44.0150   56.7380 O.3       1 ATP        -0.8121
      9 PA         45.2280   42.6690   53.2570 P.3       1 ATP         1.7511
     10 O1A        46.3800   43.3960   52.7880 O.2       1 ATP        -0.8425
     11 O2A        44.1830   42.1900   52.3510 O.3       1 ATP        -0.8210
     12 O3A        44.9170   42.7160   54.7890 O.3       1 ATP        -0.7976
     13 O5'        46.1720   41.5680   53.3020 O.3       1 ATP        -0.5718
     14 C5'        46.6090   40.4220   53.5420 C.3       1 ATP         0.1773
     15 C4'        46.5200   38.9890   53.3640 C.3       1 ATP         0.0711
     16 O4'        46.7850   38.9080   51.9480 O.3       1 ATP        -0.3945
     17 C3'        47.8080   38.8740   54.1120 C.3       1 ATP         0.0784
     18 O3'        47.7130   38.3570   55.4230 O.3       1 ATP        -0.5889
     19 C2'        48.7190   38.1160   53.1390 C.3       1 ATP         0.0612
     20 O2'        48.6320   36.7370   53.4250 O.3       1 ATP        -0.5888
     21 C1'        48.1330   38.4090   51.7210 C.3       1 ATP         0.4249
     22 N9         48.8460   39.4640   50.9860 N.pl3     1 ATP        -0.6912
     23 C8         48.6160   40.8420   50.9450 C.ar      1 ATP         0.5695
     24 N7         49.4250   41.4890   50.1650 N.ar      1 ATP        -0.5688
     25 C5         50.2320   40.4700   49.6640 C.ar      1 ATP        -0.2087
     26 C6         51.3080   40.4660   48.7310 C.ar      1 ATP         0.7239
     27 N6         51.7210   41.5680   48.1290 N.pl3     1 ATP        -0.9423
     28 N1         51.9120   39.2740   48.4470 N.ar      1 ATP        -0.8054
     29 C2         51.4930   38.1510   49.0290 C.ar      1 ATP         0.6592
     30 N3         50.4910   38.0160   49.9000 N.ar      1 ATP        -0.7130
     31 C4         49.8920   39.2530   50.1710 C.ar      1 ATP         0.5774
     32 HOG3       46.5992   46.3224   58.8095 H         1 ATP         0.4301
     33 HOA2       43.3173   42.8293   52.1230 H         1 ATP         0.4860
     34 H5'1       47.6492   40.3457   53.1926 H         1 ATP         0.0525
     35 H5'2       46.5714   40.2346   54.6253 H         1 ATP         0.0525
     36 H4'        45.6654   38.3452   53.6190 H         1 ATP         0.1214
     37 H3'        48.2020   39.8423   54.4542 H         1 ATP         0.1148
     38 HO3'       47.0751   38.8571   56.1666 H         1 ATP         0.4065
     39 H2'        49.7910   38.3380   53.2466 H         1 ATP         0.0754
     40 HO2'       49.0003   36.3505   54.3868 H         1 ATP         0.4151
     41 H1'        48.1676   37.5175   51.0776 H         1 ATP         0.1012
     42 H8         47.8360   41.3900   51.4990 H         1 ATP         0.1278
     43 HN61       51.2389   42.5309   48.3533 H         1 ATP         0.4251
     44 HN62       52.5468   41.5221   47.4038 H         1 ATP         0.4251
     45 H2         52.0360   37.2290   48.7590 H         1 ATP         0.0373
@<TRIPOS>BOND
     1    1    2 2
     2    1    3 1
     3    1    4 1
     4    1    8 1
     5    4   32 1
     6    5    6 2
     7    5    7 1
     8    5    8 1
     9    5   12 1
    10    9   10 2
    11    9   11 1
    12    9   12 1
    13    9   13 1
    14   11   33 1
    15   13   14 1
    16   14   15 1
    17   14   34 1
    18   14   35 1
    19   15   16 1
    20   15   17 1
    21   15   36 1
    22   16   21 1
    23   17   18 1
    24   17   19 1
    25   17   37 1
    26   18   38 1
    27   19   20 1
    28   19   21 1
    29   19   39 1
    30   20   40 1
    31   21   22 1
    32   21   41 1
    33   22   23 ar
    34   22   31 ar
    35   23   24 ar
    36   23   42 1
    37   24   25 ar
    38   25   26 ar
    39   25   31 ar
    40   26   27 1
    41   26   28 ar
    42   27   43 1
    43   27   44 1
    44   28   29 ar
    45   29   30 ar
    46   29   45 1
    47   30   31 ar
@<TRIPOS>SUBSTRUCTURE
     1 ATP         1 GROUP   0 A     ****
@<TRIPOS>MOLECULE
[[[5-(6-aminopurin-9-yl)-3,4-dihydroxy-tetrahydrofuran-2-yl]methoxy-oxido-phosphoryl]oxy-hydroxy-phosphoryl] hydrogen phosphate
   45    47     1     0     0
SMALL
USER_CHARGES

@<TRIPOS>ATOM
      1 PG         46.1070   45.1820   56.9500 P.3       1 ATP         1.5644
      2 O1G        45.7790   46.3300   56.0520 O.2       1 ATP        -0.8574
      3 O2G        47.3820   44.4970   56.6260 O.3       1 ATP        -0.8574
      4 O3G        45.9720   45.5300   58.3750 O.3       1 ATP        -0.7847
      5 PB         43.9110   43.7400   55.6550 P.3       1 ATP         1.9219
      6 O1B        42.9750   42.7220   55.9860 O.2       1 ATP        -0.9022
      7 O2B        43.6030   44.7670   54.6780 O.3       1 ATP        -0.8178
      8 O3B        45.0410   44.0150   56.7380 O.3       1 ATP        -0.8224
      9 PA         45.2280   42.6690   53.2570 P.3       1 ATP         1.5926
     10 O1A        46.3800   43.3960   52.7880 O.2       1 ATP        -0.8492
     11 O2A        44.1830   42.1900   52.3510 O.3       1 ATP        -0.8492
     12 O3A        44.9170   42.7160   54.7890 O.3       1 ATP        -0.8111
     13 O5'        46.1720   41.5680   53.3020 O.3       1 ATP        -0.5681
     14 C5'        46.6090   40.4220   53.5420 C.3       1 ATP         0.1990
     15 C4'        46.5200   38.9890   53.3640 C.3       1 ATP         0.0763
     16 O4'        46.7850   38.9080   51.9480 O.3       1 ATP        -0.3890
     17 C3'        47.8080   38.8740   54.1120 C.3       1 ATP         0.0725
     18 O3'        47.7130   38.3570   55.4230 O.3       1 ATP        -0.6133
     19 C2'        48.7190   38.1160   53.1390 C.3       1 ATP         0.1117
     20 O2'        48.6320   36.7370   53.4250 O.3       1 ATP        -0.5938
     21 C1'        48.1330   38.4090   51.7210 C.3       1 ATP         0.4028
     22 N9         48.8460   39.4640   50.9860 N.pl3     1 ATP        -0.6856
     23 C8         48.6160   40.8420   50.9450 C.ar      1 ATP         0.5639
     24 N7         49.4250   41.4890   50.1650 N.ar      1 ATP        -0.5707
     25 C5         50.2320   40.4700   49.6640 C.ar      1 ATP        -0.2091
     26 C6         51.3080   40.4660   48.7310 C.ar      1 ATP         0.7205
     27 N6         51.7210   41.5680   48.1290 N.pl3     1 ATP        -0.9390
     28 N1         51.9120   39.2740   48.4470 N.ar      1 ATP        -0.8023
     29 C2         51.4930   38.1510   49.0290 C.ar      1 ATP         0.6599
     30 N3         50.4910   38.0160   49.9000 N.ar      1 ATP        -0.7102
     31 C4         49.8920   39.2530   50.1710 C.ar      1 ATP         0.5750
     32 HOG3       46.5992   46.3224   58.8095 H         1 ATP         0.4394
     33 HOB2       42.9452   45.6055   54.9502 H         1 ATP         0.4656
     34 H5'1       47.6492   40.3457   53.1926 H         1 ATP         0.0387
     35 H5'2       46.5714   40.2346   54.6253 H         1 ATP         0.0387
     36 H4'        45.6654   38.3452   53.6190 H         1 ATP         0.0836
     37 H3'        48.2020   39.8423   54.4542 H         1 ATP         0.0659
     38 HO3'       47.0751   38.8571   56.1666 H         1 ATP         0.4358
     39 H2'        49.7910   38.3380   53.2466 H         1 ATP         0.0785
     40 HO2'       49.0003   36.3505   54.3868 H         1 ATP         0.4271
     41 H1'        48.1676   37.5175   51.0776 H         1 ATP         0.1086
     42 H8         47.8360   41.3900   51.4990 H         1 ATP         0.1102
     43 HN61       51.2389   42.5309   48.3533 H         1 ATP         0.4208
     44 HN62       52.5468   41.5221   47.4038 H         1 ATP         0.4208
     45 H2         52.0360   37.2290   48.7590 H         1 ATP         0.0385
@<TRIPOS>BOND
     1    1    2 2
     2    1    3 1
     3    1    4 1
     4    1    8 1
     5    4   32 1
     6    5    6 2
     7    5    7 1
     8    5    8 1
     9    5   12 1
    10    7   33 1
    11    9   10 2
    12    9   11 1
    13    9   12 1
    14    9   13 1
    15   13   14 1
    16   14   15 1
    17   14   34 1
    18   14   35 1
    19   15   16 1
    20   15   17 1
    21   15   36 1
    22   16   21 1
    23   17   18 1
    24   17   19 1
    25   17   37 1
    26   18   38 1
    27   19   20 1
    28   19   21 1
    29   19   39 1
    30   20   40 1
    31   21   22 1
    32   21   41 1
    33   22   23 ar
    34   22   31 ar
    35   23   24 ar
    36   23   42 1
    37   24   25 ar
    38   25   26 ar
    39   25   31 ar
    40   26   27 1
    41   26   28 ar
    42   27   43 1
    43   27   44 1
    44   28   29 ar
    45   29   30 ar
    46   29   45 1
    47   30   31 ar
@<TRIPOS>SUBSTRUCTURE
     1 ATP         1 GROUP   0 A     ****
@<TRIPOS>MOLECULE
[[[5-(6-amino-1,8-dihydropurine-6,8-diylium-7-id-9-yl)-3,4-dihydroxy-tetrahydrofuran-2-yl]methoxy-oxido-phosphoryl]oxy-oxido-phosphoryl] hydrogen phosphate
   45    47     1     0     0
SMALL
USER_CHARGES

@<TRIPOS>ATOM
      1 PG         46.1070   45.1820   56.9500 P.3       1 ATP         1.5585
      2 O1G        45.7790   46.3300   56.0520 O.2       1 ATP        -0.8878
      3 O2G        47.3820   44.4970   56.6260 O.3       1 ATP        -0.8878
      4 O3G        45.9720   45.5300   58.3750 O.3       1 ATP        -0.8204
      5 PB         43.9110   43.7400   55.6550 P.3       1 ATP         1.6926
      6 O1B        42.9750   42.7220   55.9860 O.2       1 ATP        -0.8856
      7 O2B        43.6030   44.7670   54.6780 O.3       1 ATP        -0.8856
      8 O3B        45.0410   44.0150   56.7380 O.3       1 ATP        -0.8260
      9 PA         45.2280   42.6690   53.2570 P.3       1 ATP         1.5972
     10 O1A        46.3800   43.3960   52.7880 O.2       1 ATP        -0.8951
     11 O2A        44.1830   42.1900   52.3510 O.3       1 ATP        -0.8951
     12 O3A        44.9170   42.7160   54.7890 O.3       1 ATP        -0.8131
     13 O5'        46.1720   41.5680   53.3020 O.3       1 ATP        -0.5485
     14 C5'        46.6090   40.4220   53.5420 C.3       1 ATP         0.2167
     15 C4'        46.5200   38.9890   53.3640 C.3       1 ATP         0.0966
     16 O4'        46.7850   38.9080   51.9480 O.3       1 ATP        -0.3569
     17 C3'        47.8080   38.8740   54.1120 C.3       1 ATP         0.1246
     18 O3'        47.7130   38.3570   55.4230 O.3       1 ATP        -0.5343
     19 C2'        48.7190   38.1160   53.1390 C.3       1 ATP         0.0617
     20 O2'        48.6320   36.7370   53.4250 O.3       1 ATP        -0.5410
     21 C1'        48.1330   38.4090   51.7210 C.3       1 ATP         0.3809
     22 N9         48.8460   39.4640   50.9860 N.pl3     1 ATP        -0.4405
     23 C8         48.6160   40.8420   50.9450 C.cat     1 ATP         0.2159
     24 N7         49.4250   41.4890   50.1650 N.ar      1 ATP        -0.2804
     25 C5         50.2320   40.4700   49.6640 C.ar      1 ATP        -0.1279
     26 C6         51.3080   40.4660   48.7310 C.cat     1 ATP         0.4681
     27 N6         51.7210   41.5680   48.1290 N.pl3     1 ATP        -0.8333
     28 N1         51.9120   39.2740   48.4470 N.pl3     1 ATP        -0.7005
     29 C2         51.4930   38.1510   49.0290 C.ar      1 ATP         0.6106
     30 N3         50.4910   38.0160   49.9000 N.ar      1 ATP        -0.5255
     31 C4         49.8920   39.2530   50.1710 C.ar      1 ATP         0.2569
     32 HOG3       46.5992   46.3224   58.8095 H         1 ATP         0.4425
     33 H5'1       47.6492   40.3457   53.1926 H         1 ATP         0.0321
     34 H5'2       46.5714   40.2346   54.6253 H         1 ATP         0.0321
     35 H4'        45.6654   38.3452   53.6190 H         1 ATP         0.1230
     36 H3'        48.2020   39.8423   54.4542 H         1 ATP         0.0545
     37 HO3'       47.0751   38.8571   56.1666 H         1 ATP         0.3971
     38 H2'        49.7910   38.3380   53.2466 H         1 ATP         0.0303
     39 HO2'       49.0003   36.3505   54.3868 H         1 ATP         0.3854
     40 H1'        48.1676   37.5175   51.0776 H         1 ATP         0.0967
     41 H8         47.8360   41.3900   51.4990 H         1 ATP         0.3195
     42 HN61       51.2389   42.5309   48.3533 H         1 ATP         0.4722
     43 HN62       52.5468   41.5221   47.4038 H         1 ATP         0.4722
     44 H2         52.0360   37.2290   48.7590 H         1 ATP         0.0817
     45 H45        52.7492   39.2376   47.7344 H         1 ATP         0.4655
@<TRIPOS>BOND
     1    1    2 2
     2    1    3 1
     3    1    4 1
     4    1    8 1
     5    4   32 1
     6    5    6 2
     7    5    7 1
     8    5    8 1
     9    5   12 1
    10    9   10 2
    11    9   11 1
    12    9   12 1
    13    9   13 1
    14   13   14 1
    15   14   15 1
    16   14   33 1
    17   14   34 1
    18   15   16 1
    19   15   17 1
    20   15   35 1
    21   16   21 1
    22   17   18 1
    23   17   19 1
    24   17   36 1
    25   18   37 1
    26   19   20 1
    27   19   21 1
    28   19   38 1
    29   20   39 1
    30   21   22 1
    31   21   40 1
    32   22   23 ar
    33   22   31 ar
    34   23   24 ar
    35   23   41 1
    36   24   25 ar
    37   25   26 ar
    38   25   31 ar
    39   26   27 1
    40   26   28 ar
    41   27   42 1
    42   27   43 1
    43   28   29 ar
    44   28   45 1
    45   29   30 ar
    46   29   44 1
    47   30   31 ar
@<TRIPOS>SUBSTRUCTURE
     1 ATP         1 GROUP   0 A     ****
@<TRIPOS>MOLECULE
[[5-(6-aminopurin-9-yl)-3,4-dihydroxy-tetrahydrofuran-2-yl]methoxy-oxido-phosphoryl] phosphono phosphate
   45    47     1     0     0
SMALL
USER_CHARGES

@<TRIPOS>ATOM
      1 PG         46.1070   45.1820   56.9500 P.3       1 ATP         1.7256
      2 O1G        45.7790   46.3300   56.0520 O.2       1 ATP        -0.8508
      3 O2G        47.3820   44.4970   56.6260 O.3       1 ATP        -0.7956
      4 O3G        45.9720   45.5300   58.3750 O.3       1 ATP        -0.7956
      5 PB         43.9110   43.7400   55.6550 P.3       1 ATP         1.6833
      6 O1B        42.9750   42.7220   55.9860 O.2       1 ATP        -0.8629
      7 O2B        43.6030   44.7670   54.6780 O.3       1 ATP        -0.8629
      8 O3B        45.0410   44.0150   56.7380 O.3       1 ATP        -0.8060
      9 PA         45.2280   42.6690   53.2570 P.3       1 ATP         1.5849
     10 O1A        46.3800   43.3960   52.7880 O.2       1 ATP        -0.8661
     11 O2A        44.1830   42.1900   52.3510 O.3       1 ATP        -0.8661
     12 O3A        44.9170   42.7160   54.7890 O.3       1 ATP        -0.8138
     13 O5'        46.1720   41.5680   53.3020 O.3       1 ATP        -0.5698
     14 C5'        46.6090   40.4220   53.5420 C.3       1 ATP         0.2024
     15 C4'        46.5200   38.9890   53.3640 C.3       1 ATP         0.0870
     16 O4'        46.7850   38.9080   51.9480 O.3       1 ATP        -0.4007
     17 C3'        47.8080   38.8740   54.1120 C.3       1 ATP         0.0779
     18 O3'        47.7130   38.3570   55.4230 O.3       1 ATP        -0.6179
     19 C2'        48.7190   38.1160   53.1390 C.3       1 ATP         0.0860
     20 O2'        48.6320   36.7370   53.4250 O.3       1 ATP        -0.5874
     21 C1'        48.1330   38.4090   51.7210 C.3       1 ATP         0.3909
     22 N9         48.8460   39.4640   50.9860 N.pl3     1 ATP        -0.6748
     23 C8         48.6160   40.8420   50.9450 C.ar      1 ATP         0.5686
     24 N7         49.4250   41.4890   50.1650 N.ar      1 ATP        -0.5683
     25 C5         50.2320   40.4700   49.6640 C.ar      1 ATP        -0.2097
     26 C6         51.3080   40.4660   48.7310 C.ar      1 ATP         0.7196
     27 N6         51.7210   41.5680   48.1290 N.pl3     1 ATP        -0.9397
     28 N1         51.9120   39.2740   48.4470 N.ar      1 ATP        -0.7999
     29 C2         51.4930   38.1510   49.0290 C.ar      1 ATP         0.6589
     30 N3         50.4910   38.0160   49.9000 N.ar      1 ATP        -0.7182
     31 C4         49.8920   39.2530   50.1710 C.ar      1 ATP         0.5869
     32 HOG2       48.3320   45.0490   56.6795 H         1 ATP         0.4811
     33 HOG3       46.5992   46.3224   58.8095 H         1 ATP         0.4811
     34 H5'1       47.6492   40.3457   53.1926 H         1 ATP         0.0335
     35 H5'2       46.5714   40.2346   54.6253 H         1 ATP         0.0335
     36 H4'        45.6654   38.3452   53.6190 H         1 ATP         0.0940
     37 H3'        48.2020   39.8423   54.4542 H         1 ATP         0.1091
     38 HO3'       47.0751   38.8571   56.1666 H         1 ATP         0.4134
     39 H2'        49.7910   38.3380   53.2466 H         1 ATP         0.0958
     40 HO2'       49.0003   36.3505   54.3868 H         1 ATP         0.4166
     41 H1'        48.1676   37.5175   51.0776 H         1 ATP         0.0899
     42 H8         47.8360   41.3900   51.4990 H         1 ATP         0.1081
     43 HN61       51.2389   42.5309   48.3533 H         1 ATP         0.4214
     44 HN62       52.5468   41.5221   47.4038 H         1 ATP         0.4214
     45 H2         52.0360   37.2290   48.7590 H         1 ATP         0.0354
@<TRIPOS>BOND
     1    1    2 2
     2    1    3 1
     3    1    4 1
     4    1    8 1
     5    3   32 1
     6    4   33 1
     7    5    6 2
     8    5    7 1
     9    5    8 1
    10    5   12 1
    11    9   10 2
    12    9   11 1
    13    9   12 1
    14    9   13 1
    15   13   14 1
    16   14   15 1
    17   14   34 1
    18   14   35 1
    19   15   16 1
    20   15   17 1
    21   15   36 1
    22   16   21 1
    23   17   18 1
    24   17   19 1
    25   17   37 1
    26   18   38 1
    27   19   20 1
    28   19   21 1
    29   19   39 1
    30   20   40 1
    31   21   22 1
    32   21   41 1
    33   22   23 ar
    34   22   31 ar
    35   23   24 ar
    36   23   42 1
    37   24   25 ar
    38   25   26 ar
    39   25   31 ar
    40   26   27 1
    41   26   28 ar
    42   27   43 1
    43   27   44 1
    44   28   29 ar
    45   29   30 ar
    46   29   45 1
    47   30   31 ar
@<TRIPOS>SUBSTRUCTURE
     1 ATP         1 GROUP   0 A     ****
@<TRIPOS>MOLECULE
[[[5-(6-amino-1,8-dihydropurine-6,8-diylium-7-id-9-yl)-3,4-dihydroxy-tetrahydrofuran-2-yl]methoxy-hydroxy-phosphoryl]oxy-oxido-phosphoryl] hydrogen phosphate
   46    48     1     0     0
SMALL
USER_CHARGES

@<TRIPOS>ATOM
      1 PG         46.1070   45.1820   56.9500 P.3       1 ATP         1.5655
      2 O1G        45.7790   46.3300   56.0520 O.2       1 ATP        -0.8620
      3 O2G        47.3820   44.4970   56.6260 O.3       1 ATP        -0.8620
      4 O3G        45.9720   45.5300   58.3750 O.3       1 ATP        -0.7953
      5 PB         43.9110   43.7400   55.6550 P.3       1 ATP         1.6905
      6 O1B        42.9750   42.7220   55.9860 O.2       1 ATP        -0.8661
      7 O2B        43.6030   44.7670   54.6780 O.3       1 ATP        -0.8661
      8 O3B        45.0410   44.0150   56.7380 O.3       1 ATP        -0.8111
      9 PA         45.2280   42.6690   53.2570 P.3       1 ATP         1.7701
     10 O1A        46.3800   43.3960   52.7880 O.2       1 ATP        -0.8594
     11 O2A        44.1830   42.1900   52.3510 O.3       1 ATP        -0.8116
     12 O3A        44.9170   42.7160   54.7890 O.3       1 ATP        -0.7734
     13 O5'        46.1720   41.5680   53.3020 O.3       1 ATP        -0.5789
     14 C5'        46.6090   40.4220   53.5420 C.3       1 ATP         0.1816
     15 C4'        46.5200   38.9890   53.3640 C.3       1 ATP         0.1282
     16 O4'        46.7850   38.9080   51.9480 O.3       1 ATP        -0.4067
     17 C3'        47.8080   38.8740   54.1120 C.3       1 ATP         0.1342
     18 O3'        47.7130   38.3570   55.4230 O.3       1 ATP        -0.5789
     19 C2'        48.7190   38.1160   53.1390 C.3       1 ATP         0.0602
     20 O2'        48.6320   36.7370   53.4250 O.3       1 ATP        -0.5711
     21 C1'        48.1330   38.4090   51.7210 C.3       1 ATP         0.3837
     22 N9         48.8460   39.4640   50.9860 N.pl3     1 ATP        -0.4405
     23 C8         48.6160   40.8420   50.9450 C.cat     1 ATP         0.1980
     24 N7         49.4250   41.4890   50.1650 N.ar      1 ATP        -0.2674
     25 C5         50.2320   40.4700   49.6640 C.ar      1 ATP        -0.1371
     26 C6         51.3080   40.4660   48.7310 C.cat     1 ATP         0.4836
     27 N6         51.7210   41.5680   48.1290 N.pl3     1 ATP        -0.8205
     28 N1         51.9120   39.2740   48.4470 N.pl3     1 ATP        -0.6961
     29 C2         51.4930   38.1510   49.0290 C.ar      1 ATP         0.6258
     30 N3         50.4910   38.0160   49.9000 N.ar      1 ATP        -0.5206
     31 C4         49.8920   39.2530   50.1710 C.ar      1 ATP         0.2723
     32 HOG3       46.5992   46.3224   58.8095 H         1 ATP         0.4151
     33 HOA2       43.3173   42.8293   52.1230 H         1 ATP         0.4594
     34 H5'1       47.6492   40.3457   53.1926 H         1 ATP         0.0509
     35 H5'2       46.5714   40.2346   54.6253 H         1 ATP         0.0509
     36 H4'        45.6654   38.3452   53.6190 H         1 ATP         0.1314
     37 H3'        48.2020   39.8423   54.4542 H         1 ATP         0.1285
     38 HO3'       47.0751   38.8571   56.1666 H         1 ATP         0.4150
     39 H2'        49.7910   38.3380   53.2466 H         1 ATP         0.0705
     40 HO2'       49.0003   36.3505   54.3868 H         1 ATP         0.3990
     41 H1'        48.1676   37.5175   51.0776 H         1 ATP         0.1111
     42 H8         47.8360   41.3900   51.4990 H         1 ATP         0.2708
     43 HN61       51.2389   42.5309   48.3533 H         1 ATP         0.4792
     44 HN62       52.5468   41.5221   47.4038 H         1 ATP         0.4792
     45 H2         52.0360   37.2290   48.7590 H         1 ATP         0.0929
     46 H46        52.7492   39.2376   47.7344 H         1 ATP         0.4770
@<TRIPOS>BOND
     1    1    2 2
     2    1    3 1
     3    1    4 1
     4    1    8 1
     5    4   32 1
     6    5    6 2
     7    5    7 1
     8    5    8 1
     9    5   12 1
    10    9   10 2
    11    9   11 1
    12    9   12 1
    13    9   13 1
    14   11   33 1
    15   13   14 1
    16   14   15 1
    17   14   34 1
    18   14   35 1
    19   15   16 1
    20   15   17 1
    21   15   36 1
    22   16   21 1
    23   17   18 1
    24   17   19 1
    25   17   37 1
    26   18   38 1
    27   19   20 1
    28   19   21 1
    29   19   39 1
    30   20   40 1
    31   21   22 1
    32   21   41 1
    33   22   23 ar
    34   22   31 ar
    35   23   24 ar
    36   23   42 1
    37   24   25 ar
    38   25   26 ar
    39   25   31 ar
    40   26   27 1
    41   26   28 ar
    42   27   43 1
    43   27   44 1
    44   28   29 ar
    45   28   46 1
    46   29   30 ar
    47   29   45 1
    48   30   31 ar
@<TRIPOS>SUBSTRUCTURE
     1 ATP         1 GROUP   0 A     ****
@<TRIPOS>MOLECULE
[[[5-(6-amino-1,8-dihydropurine-6,8-diylium-7-id-9-yl)-3,4-dihydroxy-tetrahydrofuran-2-yl]methoxy-oxido-phosphoryl]oxy-hydroxy-phosphoryl] hydrogen phosphate
   46    48     1     0     0
SMALL
USER_CHARGES

@<TRIPOS>ATOM
      1 PG         46.1070   45.1820   56.9500 P.3       1 ATP         1.5463
      2 O1G        45.7790   46.3300   56.0520 O.2       1 ATP        -0.8411
      3 O2G        47.3820   44.4970   56.6260 O.3       1 ATP        -0.8411
      4 O3G        45.9720   45.5300   58.3750 O.3       1 ATP        -0.7813
      5 PB         43.9110   43.7400   55.6550 P.3       1 ATP         1.8998
      6 O1B        42.9750   42.7220   55.9860 O.2       1 ATP        -0.8841
      7 O2B        43.6030   44.7670   54.6780 O.3       1 ATP        -0.8137
      8 O3B        45.0410   44.0150   56.7380 O.3       1 ATP        -0.8189
      9 PA         45.2280   42.6690   53.2570 P.3       1 ATP         1.5930
     10 O1A        46.3800   43.3960   52.7880 O.2       1 ATP        -0.8506
     11 O2A        44.1830   42.1900   52.3510 O.3       1 ATP        -0.8506
     12 O3A        44.9170   42.7160   54.7890 O.3       1 ATP        -0.8075
     13 O5'        46.1720   41.5680   53.3020 O.3       1 ATP        -0.5610
     14 C5'        46.6090   40.4220   53.5420 C.3       1 ATP         0.2086
     15 C4'        46.5200   38.9890   53.3640 C.3       1 ATP         0.0986
     16 O4'        46.7850   38.9080   51.9480 O.3       1 ATP        -0.3816
     17 C3'        47.8080   38.8740   54.1120 C.3       1 ATP         0.0779
     18 O3'        47.7130   38.3570   55.4230 O.3       1 ATP        -0.5675
     19 C2'        48.7190   38.1160   53.1390 C.3       1 ATP         0.0764
     20 O2'        48.6320   36.7370   53.4250 O.3       1 ATP        -0.5904
     21 C1'        48.1330   38.4090   51.7210 C.3       1 ATP         0.3891
     22 N9         48.8460   39.4640   50.9860 N.pl3     1 ATP        -0.4437
     23 C8         48.6160   40.8420   50.9450 C.cat     1 ATP         0.1889
     24 N7         49.4250   41.4890   50.1650 N.ar      1 ATP        -0.2735
     25 C5         50.2320   40.4700   49.6640 C.ar      1 ATP        -0.1370
     26 C6         51.3080   40.4660   48.7310 C.cat     1 ATP         0.4815
     27 N6         51.7210   41.5680   48.1290 N.pl3     1 ATP        -0.8268
     28 N1         51.9120   39.2740   48.4470 N.pl3     1 ATP        -0.6969
     29 C2         51.4930   38.1510   49.0290 C.ar      1 ATP         0.6204
     30 N3         50.4910   38.0160   49.9000 N.ar      1 ATP        -0.5143
     31 C4         49.8920   39.2530   50.1710 C.ar      1 ATP         0.2810
     32 HOG3       46.5992   46.3224   58.8095 H         1 ATP         0.4278
     33 HOB2       42.9452   45.6055   54.9502 H         1 ATP         0.4725
     34 H5'1       47.6492   40.3457   53.1926 H         1 ATP         0.0403
     35 H5'2       46.5714   40.2346   54.6253 H         1 ATP         0.0403
     36 H4'        45.6654   38.3452   53.6190 H         1 ATP         0.1197
     37 H3'        48.2020   39.8423   54.4542 H         1 ATP         0.0689
     38 HO3'       47.0751   38.8571   56.1666 H         1 ATP         0.4158
     39 H2'        49.7910   38.3380   53.2466 H         1 ATP         0.0697
     40 HO2'       49.0003   36.3505   54.3868 H         1 ATP         0.4425
     41 H1'        48.1676   37.5175   51.0776 H         1 ATP         0.1200
     42 H8         47.8360   41.3900   51.4990 H         1 ATP         0.2811
     43 HN61       51.2389   42.5309   48.3533 H         1 ATP         0.4770
     44 HN62       52.5468   41.5221   47.4038 H         1 ATP         0.4770
     45 H2         52.0360   37.2290   48.7590 H         1 ATP         0.0934
     46 H46        52.7492   39.2376   47.7344 H         1 ATP         0.4742
@<TRIPOS>BOND
     1    1    2 2
     2    1    3 1
     3    1    4 1
     4    1    8 1
     5    4   32 1
     6    5    6 2
     7    5    7 1
     8    5    8 1
     9    5   12 1
    10    7   33 1
    11    9   10 2
    12    9   11 1
    13    9   12 1
    14    9   13 1
    15   13   14 1
    16   14   15 1
    17   14   34 1
    18   14   35 1
    19   15   16 1
    20   15   17 1
    21   15   36 1
    22   16   21 1
    23   17   18 1
    24   17   19 1
    25   17   37 1
    26   18   38 1
    27   19   20 1
    28   19   21 1
    29   19   39 1
    30   20   40 1
    31   21   22 1
    32   21   41 1
    33   22   23 ar
    34   22   31 ar
    35   23   24 ar
    36   23   42 1
    37   24   25 ar
    38   25   26 ar
    39   25   31 ar
    40   26   27 1
    41   26   28 ar
    42   27   43 1
    43   27   44 1
    44   28   29 ar
    45   28   46 1
    46   29   30 ar
    47   29   45 1
    48   30   31 ar
@<TRIPOS>SUBSTRUCTURE
     1 ATP         1 GROUP   0 A     ****
@<TRIPOS>MOLECULE
[[[5-(6-amino-7,8-dihydropurin-8-ylium-9-yl)-3,4-dihydroxy-tetrahydrofuran-2-yl]methoxy-oxido-phosphoryl]oxy-oxido-phosphoryl] hydrogen phosphate
   45    47     1     0     0
SMALL
USER_CHARGES

@<TRIPOS>ATOM
      1 PG         46.1070   45.1820   56.9500 P.3       1 ATP         1.5256
      2 O1G        45.7790   46.3300   56.0520 O.2       1 ATP        -0.8673
      3 O2G        47.3820   44.4970   56.6260 O.3       1 ATP        -0.8673
      4 O3G        45.9720   45.5300   58.3750 O.3       1 ATP        -0.7934
      5 PB         43.9110   43.7400   55.6550 P.3       1 ATP         1.6867
      6 O1B        42.9750   42.7220   55.9860 O.2       1 ATP        -0.8858
      7 O2B        43.6030   44.7670   54.6780 O.3       1 ATP        -0.8858
      8 O3B        45.0410   44.0150   56.7380 O.3       1 ATP        -0.8103
      9 PA         45.2280   42.6690   53.2570 P.3       1 ATP         1.5991
     10 O1A        46.3800   43.3960   52.7880 O.2       1 ATP        -0.9014
     11 O2A        44.1830   42.1900   52.3510 O.3       1 ATP        -0.9014
     12 O3A        44.9170   42.7160   54.7890 O.3       1 ATP        -0.8079
     13 O5'        46.1720   41.5680   53.3020 O.3       1 ATP        -0.5444
     14 C5'        46.6090   40.4220   53.5420 C.3       1 ATP         0.2328
     15 C4'        46.5200   38.9890   53.3640 C.3       1 ATP         0.0907
     16 O4'        46.7850   38.9080   51.9480 O.3       1 ATP        -0.3673
     17 C3'        47.8080   38.8740   54.1120 C.3       1 ATP         0.1269
     18 O3'        47.7130   38.3570   55.4230 O.3       1 ATP        -0.5295
     19 C2'        48.7190   38.1160   53.1390 C.3       1 ATP         0.0572
     20 O2'        48.6320   36.7370   53.4250 O.3       1 ATP        -0.5467
     21 C1'        48.1330   38.4090   51.7210 C.3       1 ATP         0.3908
     22 N9         48.8460   39.4640   50.9860 N.pl3     1 ATP        -0.5680
     23 C8         48.6160   40.8420   50.9450 C.cat     1 ATP         0.3283
     24 N7         49.4250   41.4890   50.1650 N.pl3     1 ATP        -0.5338
     25 C5         50.2320   40.4700   49.6640 C.ar      1 ATP        -0.2612
     26 C6         51.3080   40.4660   48.7310 C.ar      1 ATP         0.7527
     27 N6         51.7210   41.5680   48.1290 N.pl3     1 ATP        -0.9506
     28 N1         51.9120   39.2740   48.4470 N.ar      1 ATP        -0.7662
     29 C2         51.4930   38.1510   49.0290 C.ar      1 ATP         0.6977
     30 N3         50.4910   38.0160   49.9000 N.ar      1 ATP        -0.6987
     31 C4         49.8920   39.2530   50.1710 C.ar      1 ATP         0.6097
     32 HOG3       46.5992   46.3224   58.8095 H         1 ATP         0.4137
     33 H5'1       47.6492   40.3457   53.1926 H         1 ATP         0.0238
     34 H5'2       46.5714   40.2346   54.6253 H         1 ATP         0.0238
     35 H4'        45.6654   38.3452   53.6190 H         1 ATP         0.1366
     36 H3'        48.2020   39.8423   54.4542 H         1 ATP         0.0525
     37 HO3'       47.0751   38.8571   56.1666 H         1 ATP         0.3964
     38 H2'        49.7910   38.3380   53.2466 H         1 ATP         0.0362
     39 HO2'       49.0003   36.3505   54.3868 H         1 ATP         0.3960
     40 H1'        48.1676   37.5175   51.0776 H         1 ATP         0.1088
     41 H8         47.8360   41.3900   51.4990 H         1 ATP         0.3354
     42 HN61       51.2389   42.5309   48.3533 H         1 ATP         0.4460
     43 HN62       52.5468   41.5221   47.4038 H         1 ATP         0.4460
     44 H2         52.0360   37.2290   48.7590 H         1 ATP         0.0703
     45 H45        49.3328   42.5801   50.0600 H         1 ATP         0.5033
@<TRIPOS>BOND
     1    1    2 2
     2    1    3 1
     3    1    4 1
     4    1    8 1
     5    4   32 1
     6    5    6 2
     7    5    7 1
     8    5    8 1
     9    5   12 1
    10    9   10 2
    11    9   11 1
    12    9   12 1
    13    9   13 1
    14   13   14 1
    15   14   15 1
    16   14   33 1
    17   14   34 1
    18   15   16 1
    19   15   17 1
    20   15   35 1
    21   16   21 1
    22   17   18 1
    23   17   19 1
    24   17   36 1
    25   18   37 1
    26   19   20 1
    27   19   21 1
    28   19   38 1
    29   20   39 1
    30   21   22 1
    31   21   40 1
    32   22   23 ar
    33   22   31 ar
    34   23   24 ar
    35   23   41 1
    36   24   25 ar
    37   24   45 1
    38   25   26 ar
    39   25   31 ar
    40   26   27 1
    41   26   28 ar
    42   27   42 1
    43   27   43 1
    44   28   29 ar
    45   29   30 ar
    46   29   44 1
    47   30   31 ar
@<TRIPOS>SUBSTRUCTURE
     1 ATP         1 GROUP   0 A     ****
@<TRIPOS>MOLECULE
[[5-(6-amino-1,8-dihydropurine-6,8-diylium-7-id-9-yl)-3,4-dihydroxy-tetrahydrofuran-2-yl]methoxy-oxido-phosphoryl] phosphono phosphate
   46    48     1     0     0
SMALL
USER_CHARGES

@<TRIPOS>ATOM
      1 PG         46.1070   45.1820   56.9500 P.3       1 ATP         1.7368
      2 O1G        45.7790   46.3300   56.0520 O.2       1 ATP        -0.8443
      3 O2G        47.3820   44.4970   56.6260 O.3       1 ATP        -0.7972
      4 O3G        45.9720   45.5300   58.3750 O.3       1 ATP        -0.7972
      5 PB         43.9110   43.7400   55.6550 P.3       1 ATP         1.6733
      6 O1B        42.9750   42.7220   55.9860 O.2       1 ATP        -0.8514
      7 O2B        43.6030   44.7670   54.6780 O.3       1 ATP        -0.8514
      8 O3B        45.0410   44.0150   56.7380 O.3       1 ATP        -0.8162
      9 PA         45.2280   42.6690   53.2570 P.3       1 ATP         1.5798
     10 O1A        46.3800   43.3960   52.7880 O.2       1 ATP        -0.8672
     11 O2A        44.1830   42.1900   52.3510 O.3       1 ATP        -0.8672
     12 O3A        44.9170   42.7160   54.7890 O.3       1 ATP        -0.8121
     13 O5'        46.1720   41.5680   53.3020 O.3       1 ATP        -0.5636
     14 C5'        46.6090   40.4220   53.5420 C.3       1 ATP         0.1948
     15 C4'        46.5200   38.9890   53.3640 C.3       1 ATP         0.1219
     16 O4'        46.7850   38.9080   51.9480 O.3       1 ATP        -0.3675
     17 C3'        47.8080   38.8740   54.1120 C.3       1 ATP         0.0803
     18 O3'        47.7130   38.3570   55.4230 O.3       1 ATP        -0.5735
     19 C2'        48.7190   38.1160   53.1390 C.3       1 ATP         0.0645
     20 O2'        48.6320   36.7370   53.4250 O.3       1 ATP        -0.5942
     21 C1'        48.1330   38.4090   51.7210 C.3       1 ATP         0.4177
     22 N9         48.8460   39.4640   50.9860 N.pl3     1 ATP        -0.4435
     23 C8         48.6160   40.8420   50.9450 C.cat     1 ATP         0.2048
     24 N7         49.4250   41.4890   50.1650 N.ar      1 ATP        -0.2712
     25 C5         50.2320   40.4700   49.6640 C.ar      1 ATP        -0.1316
     26 C6         51.3080   40.4660   48.7310 C.cat     1 ATP         0.4763
     27 N6         51.7210   41.5680   48.1290 N.pl3     1 ATP        -0.8289
     28 N1         51.9120   39.2740   48.4470 N.pl3     1 ATP        -0.6983
     29 C2         51.4930   38.1510   49.0290 C.ar      1 ATP         0.6187
     30 N3         50.4910   38.0160   49.9000 N.ar      1 ATP        -0.5149
     31 C4         49.8920   39.2530   50.1710 C.ar      1 ATP         0.2889
     32 HOG2       48.3320   45.0490   56.6795 H         1 ATP         0.4834
     33 HOG3       46.5992   46.3224   58.8095 H         1 ATP         0.4834
     34 H5'1       47.6492   40.3457   53.1926 H         1 ATP         0.0287
     35 H5'2       46.5714   40.2346   54.6253 H         1 ATP         0.0287
     36 H4'        45.6654   38.3452   53.6190 H         1 ATP         0.1247
     37 H3'        48.2020   39.8423   54.4542 H         1 ATP         0.0824
     38 HO3'       47.0751   38.8571   56.1666 H         1 ATP         0.3962
     39 H2'        49.7910   38.3380   53.2466 H         1 ATP         0.0705
     40 HO2'       49.0003   36.3505   54.3868 H         1 ATP         0.4121
     41 H1'        48.1676   37.5175   51.0776 H         1 ATP         0.1166
     42 H8         47.8360   41.3900   51.4990 H         1 ATP         0.2971
     43 HN61       51.2389   42.5309   48.3533 H         1 ATP         0.4762
     44 HN62       52.5468   41.5221   47.4038 H         1 ATP         0.4762
     45 H2         52.0360   37.2290   48.7590 H         1 ATP         0.0867
     46 H46        52.7492   39.2376   47.7344 H         1 ATP         0.4710
@<TRIPOS>BOND
     1    1    2 2
     2    1    3 1
     3    1    4 1
     4    1    8 1
     5    3   32 1
     6    4   33 1
     7    5    6 2
     8    5    7 1
     9    5    8 1
    10    5   12 1
    11    9   10 2
    12    9   11 1
    13    9   12 1
    14    9   13 1
    15   13   14 1
    16   14   15 1
    17   14   34 1
    18   14   35 1
    19   15   16 1
    20   15   17 1
    21   15   36 1
    22   16   21 1
    23   17   18 1
    24   17   19 1
    25   17   37 1
    26   18   38 1
    27   19   20 1
    28   19   21 1
    29   19   39 1
    30   20   40 1
    31   21   22 1
    32   21   41 1
    33   22   23 ar
    34   22   31 ar
    35   23   24 ar
    36   23   42 1
    37   24   25 ar
    38   25   26 ar
    39   25   31 ar
    40   26   27 1
    41   26   28 ar
    42   27   43 1
    43   27   44 1
    44   28   29 ar
    45   28   46 1
    46   29   30 ar
    47   29   45 1
    48   30   31 ar
@<TRIPOS>SUBSTRUCTURE
     1 ATP         1 GROUP   0 A     ****
@<TRIPOS>MOLECULE
[[5-(6-aminopurin-9-yl)-3,4-dihydroxy-tetrahydrofuran-2-yl]methoxy-hydroxy-phosphoryl] phosphono phosphate
   46    48     1     0     0
SMALL
USER_CHARGES

@<TRIPOS>ATOM
      1 PG         46.1070   45.1820   56.9500 P.3       1 ATP         1.7658
      2 O1G        45.7790   46.3300   56.0520 O.2       1 ATP        -0.8508
      3 O2G        47.3820   44.4970   56.6260 O.3       1 ATP        -0.7972
      4 O3G        45.9720   45.5300   58.3750 O.3       1 ATP        -0.7972
      5 PB         43.9110   43.7400   55.6550 P.3       1 ATP         1.6754
      6 O1B        42.9750   42.7220   55.9860 O.2       1 ATP        -0.8256
      7 O2B        43.6030   44.7670   54.6780 O.3       1 ATP        -0.8256
      8 O3B        45.0410   44.0150   56.7380 O.3       1 ATP        -0.7937
      9 PA         45.2280   42.6690   53.2570 P.3       1 ATP         1.7895
     10 O1A        46.3800   43.3960   52.7880 O.2       1 ATP        -0.8530
     11 O2A        44.1830   42.1900   52.3510 O.3       1 ATP        -0.8102
     12 O3A        44.9170   42.7160   54.7890 O.3       1 ATP        -0.7949
     13 O5'        46.1720   41.5680   53.3020 O.3       1 ATP        -0.5789
     14 C5'        46.6090   40.4220   53.5420 C.3       1 ATP         0.1750
     15 C4'        46.5200   38.9890   53.3640 C.3       1 ATP         0.1181
     16 O4'        46.7850   38.9080   51.9480 O.3       1 ATP        -0.4235
     17 C3'        47.8080   38.8740   54.1120 C.3       1 ATP         0.1011
     18 O3'        47.7130   38.3570   55.4230 O.3       1 ATP        -0.5920
     19 C2'        48.7190   38.1160   53.1390 C.3       1 ATP         0.0612
     20 O2'        48.6320   36.7370   53.4250 O.3       1 ATP        -0.5829
     21 C1'        48.1330   38.4090   51.7210 C.3       1 ATP         0.4346
     22 N9         48.8460   39.4640   50.9860 N.pl3     1 ATP        -0.6959
     23 C8         48.6160   40.8420   50.9450 C.ar      1 ATP         0.5529
     24 N7         49.4250   41.4890   50.1650 N.ar      1 ATP        -0.5543
     25 C5         50.2320   40.4700   49.6640 C.ar      1 ATP        -0.2220
     26 C6         51.3080   40.4660   48.7310 C.ar      1 ATP         0.7457
     27 N6         51.7210   41.5680   48.1290 N.pl3     1 ATP        -0.9542
     28 N1         51.9120   39.2740   48.4470 N.ar      1 ATP        -0.7995
     29 C2         51.4930   38.1510   49.0290 C.ar      1 ATP         0.6731
     30 N3         50.4910   38.0160   49.9000 N.ar      1 ATP        -0.7205
     31 C4         49.8920   39.2530   50.1710 C.ar      1 ATP         0.5846
     32 HOG2       48.3320   45.0490   56.6795 H         1 ATP         0.4870
     33 HOG3       46.5992   46.3224   58.8095 H         1 ATP         0.4870
     34 HOA2       43.3173   42.8293   52.1230 H         1 ATP         0.4728
     35 H5'1       47.6492   40.3457   53.1926 H         1 ATP         0.0571
     36 H5'2       46.5714   40.2346   54.6253 H         1 ATP         0.0571
     37 H4'        45.6654   38.3452   53.6190 H         1 ATP         0.1063
     38 H3'        48.2020   39.8423   54.4542 H         1 ATP         0.0902
     39 HO3'       47.0751   38.8571   56.1666 H         1 ATP         0.4169
     40 H2'        49.7910   38.3380   53.2466 H         1 ATP         0.0767
     41 HO2'       49.0003   36.3505   54.3868 H         1 ATP         0.4166
     42 H1'        48.1676   37.5175   51.0776 H         1 ATP         0.1078
     43 H8         47.8360   41.3900   51.4990 H         1 ATP         0.0955
     44 HN61       51.2389   42.5309   48.3533 H         1 ATP         0.4397
     45 HN62       52.5468   41.5221   47.4038 H         1 ATP         0.4397
     46 H2         52.0360   37.2290   48.7590 H         1 ATP         0.0451
@<TRIPOS>BOND
     1    1    2 2
     2    1    3 1
     3    1    4 1
     4    1    8 1
     5    3   32 1
     6    4   33 1
     7    5    6 2
     8    5    7 1
     9    5    8 1
    10    5   12 1
    11    9   10 2
    12    9   11 1
    13    9   12 1
    14    9   13 1
    15   11   34 1
    16   13   14 1
    17   14   15 1
    18   14   35 1
    19   14   36 1
    20   15   16 1
    21   15   17 1
    22   15   37 1
    23   16   21 1
    24   17   18 1
    25   17   19 1
    26   17   38 1
    27   18   39 1
    28   19   20 1
    29   19   21 1
    30   19   40 1
    31   20   41 1
    32   21   22 1
    33   21   42 1
    34   22   23 ar
    35   22   31 ar
    36   23   24 ar
    37   23   43 1
    38   24   25 ar
    39   25   26 ar
    40   25   31 ar
    41   26   27 1
    42   26   28 ar
    43   27   44 1
    44   27   45 1
    45   28   29 ar
    46   29   30 ar
    47   29   46 1
    48   30   31 ar
@<TRIPOS>SUBSTRUCTURE
     1 ATP         1 GROUP   0 A     ****
@<TRIPOS>MOLECULE
[[[5-(6-aminopurin-9-yl)-3,4-dihydroxy-tetrahydrofuran-2-yl]methoxy-hydroxy-phosphoryl]oxy-hydroxy-phosphoryl] hydrogen phosphate
   46    48     1     0     0
SMALL
USER_CHARGES

@<TRIPOS>ATOM
      1 PG         46.1070   45.1820   56.9500 P.3       1 ATP         1.5331
      2 O1G        45.7790   46.3300   56.0520 O.2       1 ATP        -0.8083
      3 O2G        47.3820   44.4970   56.6260 O.3       1 ATP        -0.8083
      4 O3G        45.9720   45.5300   58.3750 O.3       1 ATP        -0.7755
      5 PB         43.9110   43.7400   55.6550 P.3       1 ATP         1.9009
      6 O1B        42.9750   42.7220   55.9860 O.2       1 ATP        -0.8846
      7 O2B        43.6030   44.7670   54.6780 O.3       1 ATP        -0.7996
      8 O3B        45.0410   44.0150   56.7380 O.3       1 ATP        -0.7764
      9 PA         45.2280   42.6690   53.2570 P.3       1 ATP         1.7940
     10 O1A        46.3800   43.3960   52.7880 O.2       1 ATP        -0.8288
     11 O2A        44.1830   42.1900   52.3510 O.3       1 ATP        -0.8188
     12 O3A        44.9170   42.7160   54.7890 O.3       1 ATP        -0.8314
     13 O5'        46.1720   41.5680   53.3020 O.3       1 ATP        -0.5796
     14 C5'        46.6090   40.4220   53.5420 C.3       1 ATP         0.1688
     15 C4'        46.5200   38.9890   53.3640 C.3       1 ATP         0.1336
     16 O4'        46.7850   38.9080   51.9480 O.3       1 ATP        -0.4226
     17 C3'        47.8080   38.8740   54.1120 C.3       1 ATP         0.1014
     18 O3'        47.7130   38.3570   55.4230 O.3       1 ATP        -0.5876
     19 C2'        48.7190   38.1160   53.1390 C.3       1 ATP         0.0621
     20 O2'        48.6320   36.7370   53.4250 O.3       1 ATP        -0.5802
     21 C1'        48.1330   38.4090   51.7210 C.3       1 ATP         0.4334
     22 N9         48.8460   39.4640   50.9860 N.pl3     1 ATP        -0.6979
     23 C8         48.6160   40.8420   50.9450 C.ar      1 ATP         0.5481
     24 N7         49.4250   41.4890   50.1650 N.ar      1 ATP        -0.5482
     25 C5         50.2320   40.4700   49.6640 C.ar      1 ATP        -0.2259
     26 C6         51.3080   40.4660   48.7310 C.ar      1 ATP         0.7474
     27 N6         51.7210   41.5680   48.1290 N.pl3     1 ATP        -0.9529
     28 N1         51.9120   39.2740   48.4470 N.ar      1 ATP        -0.7967
     29 C2         51.4930   38.1510   49.0290 C.ar      1 ATP         0.6762
     30 N3         50.4910   38.0160   49.9000 N.ar      1 ATP        -0.7230
     31 C4         49.8920   39.2530   50.1710 C.ar      1 ATP         0.5907
     32 HOG3       46.5992   46.3224   58.8095 H         1 ATP         0.4379
     33 HOB2       42.9452   45.6055   54.9502 H         1 ATP         0.4712
     34 HOA2       43.3173   42.8293   52.1230 H         1 ATP         0.5052
     35 H5'1       47.6492   40.3457   53.1926 H         1 ATP         0.0567
     36 H5'2       46.5714   40.2346   54.6253 H         1 ATP         0.0567
     37 H4'        45.6654   38.3452   53.6190 H         1 ATP         0.1100
     38 H3'        48.2020   39.8423   54.4542 H         1 ATP         0.0797
     39 HO3'       47.0751   38.8571   56.1666 H         1 ATP         0.4183
     40 H2'        49.7910   38.3380   53.2466 H         1 ATP         0.0723
     41 HO2'       49.0003   36.3505   54.3868 H         1 ATP         0.4159
     42 H1'        48.1676   37.5175   51.0776 H         1 ATP         0.1149
     43 H8         47.8360   41.3900   51.4990 H         1 ATP         0.0895
     44 HN61       51.2389   42.5309   48.3533 H         1 ATP         0.4405
     45 HN62       52.5468   41.5221   47.4038 H         1 ATP         0.4405
     46 H2         52.0360   37.2290   48.7590 H         1 ATP         0.0473
@<TRIPOS>BOND
     1    1    2 2
     2    1    3 1
     3    1    4 1
     4    1    8 1
     5    4   32 1
     6    5    6 2
     7    5    7 1
     8    5    8 1
     9    5   12 1
    10    7   33 1
    11    9   10 2
    12    9   11 1
    13    9   12 1
    14    9   13 1
    15   11   34 1
    16   13   14 1
    17   14   15 1
    18   14   35 1
    19   14   36 1
    20   15   16 1
    21   15   17 1
    22   15   37 1
    23   16   21 1
    24   17   18 1
    25   17   19 1
    26   17   38 1
    27   18   39 1
    28   19   20 1
    29   19   21 1
    30   19   40 1
    31   20   41 1
    32   21   22 1
    33   21   42 1
    34   22   23 ar
    35   22   31 ar
    36   23   24 ar
    37   23   43 1
    38   24   25 ar
    39   25   26 ar
    40   25   31 ar
    41   26   27 1
    42   26   28 ar
    43   27   44 1
    44   27   45 1
    45   28   29 ar
    46   29   30 ar
    47   29   46 1
    48   30   31 ar
@<TRIPOS>SUBSTRUCTURE
     1 ATP         1 GROUP   0 A     ****
@<TRIPOS>MOLECULE
[[5-(6-amino-1,8-dihydropurine-6,8-diylium-7-id-9-yl)-3,4-dihydroxy-tetrahydrofuran-2-yl]methoxy-hydroxy-phosphoryl] phosphono phosphate
   47    49     1     0     0
SMALL
USER_CHARGES

@<TRIPOS>ATOM
      1 PG         46.1070   45.1820   56.9500 P.3       1 ATP         1.7762
      2 O1G        45.7790   46.3300   56.0520 O.2       1 ATP        -0.8365
      3 O2G        47.3820   44.4970   56.6260 O.3       1 ATP        -0.8001
      4 O3G        45.9720   45.5300   58.3750 O.3       1 ATP        -0.8001
      5 PB         43.9110   43.7400   55.6550 P.3       1 ATP         1.6793
      6 O1B        42.9750   42.7220   55.9860 O.2       1 ATP        -0.8181
      7 O2B        43.6030   44.7670   54.6780 O.3       1 ATP        -0.8181
      8 O3B        45.0410   44.0150   56.7380 O.3       1 ATP        -0.8020
      9 PA         45.2280   42.6690   53.2570 P.3       1 ATP         1.7812
     10 O1A        46.3800   43.3960   52.7880 O.2       1 ATP        -0.8487
     11 O2A        44.1830   42.1900   52.3510 O.3       1 ATP        -0.8013
     12 O3A        44.9170   42.7160   54.7890 O.3       1 ATP        -0.7864
     13 O5'        46.1720   41.5680   53.3020 O.3       1 ATP        -0.5946
     14 C5'        46.6090   40.4220   53.5420 C.3       1 ATP         0.1802
     15 C4'        46.5200   38.9890   53.3640 C.3       1 ATP         0.1360
     16 O4'        46.7850   38.9080   51.9480 O.3       1 ATP        -0.4086
     17 C3'        47.8080   38.8740   54.1120 C.3       1 ATP         0.0889
     18 O3'        47.7130   38.3570   55.4230 O.3       1 ATP        -0.5705
     19 C2'        48.7190   38.1160   53.1390 C.3       1 ATP         0.0657
     20 O2'        48.6320   36.7370   53.4250 O.3       1 ATP        -0.5851
     21 C1'        48.1330   38.4090   51.7210 C.3       1 ATP         0.4212
     22 N9         48.8460   39.4640   50.9860 N.pl3     1 ATP        -0.4449
     23 C8         48.6160   40.8420   50.9450 C.cat     1 ATP         0.1787
     24 N7         49.4250   41.4890   50.1650 N.ar      1 ATP        -0.2694
     25 C5         50.2320   40.4700   49.6640 C.ar      1 ATP        -0.1417
     26 C6         51.3080   40.4660   48.7310 C.cat     1 ATP         0.4864
     27 N6         51.7210   41.5680   48.1290 N.pl3     1 ATP        -0.8186
     28 N1         51.9120   39.2740   48.4470 N.pl3     1 ATP        -0.6946
     29 C2         51.4930   38.1510   49.0290 C.ar      1 ATP         0.6307
     30 N3         50.4910   38.0160   49.9000 N.ar      1 ATP        -0.5053
     31 C4         49.8920   39.2530   50.1710 C.ar      1 ATP         0.2974
     32 HOG2       48.3320   45.0490   56.6795 H         1 ATP         0.4860
     33 HOG3       46.5992   46.3224   58.8095 H         1 ATP         0.4860
     34 HOA2       43.3173   42.8293   52.1230 H         1 ATP         0.4642
     35 H5'1       47.6492   40.3457   53.1926 H         1 ATP         0.0508
     36 H5'2       46.5714   40.2346   54.6253 H         1 ATP         0.0508
     37 H4'        45.6654   38.3452   53.6190 H         1 ATP         0.1544
     38 H3'        48.2020   39.8423   54.4542 H         1 ATP         0.1159
     39 HO3'       47.0751   38.8571   56.1666 H         1 ATP         0.4043
     40 H2'        49.7910   38.3380   53.2466 H         1 ATP         0.0671
     41 HO2'       49.0003   36.3505   54.3868 H         1 ATP         0.4184
     42 H1'        48.1676   37.5175   51.0776 H         1 ATP         0.1283
     43 H8         47.8360   41.3900   51.4990 H         1 ATP         0.2589
     44 HN61       51.2389   42.5309   48.3533 H         1 ATP         0.4797
     45 HN62       52.5468   41.5221   47.4038 H         1 ATP         0.4797
     46 H2         52.0360   37.2290   48.7590 H         1 ATP         0.0988
     47 H47        52.7492   39.2376   47.7344 H         1 ATP         0.4797
@<TRIPOS>BOND
     1    1    2 2
     2    1    3 1
     3    1    4 1
     4    1    8 1
     5    3   32 1
     6    4   33 1
     7    5    6 2
     8    5    7 1
     9    5    8 1
    10    5   12 1
    11    9   10 2
    12    9   11 1
    13    9   12 1
    14    9   13 1
    15   11   34 1
    16   13   14 1
    17   14   15 1
    18   14   35 1
    19   14   36 1
    20   15   16 1
    21   15   17 1
    22   15   37 1
    23   16   21 1
    24   17   18 1
    25   17   19 1
    26   17   38 1
    27   18   39 1
    28   19   20 1
    29   19   21 1
    30   19   40 1
    31   20   41 1
    32   21   22 1
    33   21   42 1
    34   22   23 ar
    35   22   31 ar
    36   23   24 ar
    37   23   43 1
    38   24   25 ar
    39   25   26 ar
    40   25   31 ar
    41   26   27 1
    42   26   28 ar
    43   27   44 1
    44   27   45 1
    45   28   29 ar
    46   28   47 1
    47   29   30 ar
    48   29   46 1
    49   30   31 ar
@<TRIPOS>SUBSTRUCTURE
     1 ATP         1 GROUP   0 A     ****
@<TRIPOS>MOLECULE
[[[5-(6-amino-7,8-dihydropurin-8-ylium-9-yl)-3,4-dihydroxy-tetrahydrofuran-2-yl]methoxy-hydroxy-phosphoryl]oxy-oxido-phosphoryl] hydrogen phosphate
   46    48     1     0     0
SMALL
USER_CHARGES

@<TRIPOS>ATOM
      1 PG         46.1070   45.1820   56.9500 P.3       1 ATP         1.5584
      2 O1G        45.7790   46.3300   56.0520 O.2       1 ATP        -0.8556
      3 O2G        47.3820   44.4970   56.6260 O.3       1 ATP        -0.8556
      4 O3G        45.9720   45.5300   58.3750 O.3       1 ATP        -0.7866
      5 PB         43.9110   43.7400   55.6550 P.3       1 ATP         1.6823
      6 O1B        42.9750   42.7220   55.9860 O.2       1 ATP        -0.8726
      7 O2B        43.6030   44.7670   54.6780 O.3       1 ATP        -0.8726
      8 O3B        45.0410   44.0150   56.7380 O.3       1 ATP        -0.8111
      9 PA         45.2280   42.6690   53.2570 P.3       1 ATP         1.7665
     10 O1A        46.3800   43.3960   52.7880 O.2       1 ATP        -0.8397
     11 O2A        44.1830   42.1900   52.3510 O.3       1 ATP        -0.8250
     12 O3A        44.9170   42.7160   54.7890 O.3       1 ATP        -0.7827
     13 O5'        46.1720   41.5680   53.3020 O.3       1 ATP        -0.6016
     14 C5'        46.6090   40.4220   53.5420 C.3       1 ATP         0.1930
     15 C4'        46.5200   38.9890   53.3640 C.3       1 ATP         0.0755
     16 O4'        46.7850   38.9080   51.9480 O.3       1 ATP        -0.4073
     17 C3'        47.8080   38.8740   54.1120 C.3       1 ATP         0.1065
     18 O3'        47.7130   38.3570   55.4230 O.3       1 ATP        -0.6103
     19 C2'        48.7190   38.1160   53.1390 C.3       1 ATP         0.1195
     20 O2'        48.6320   36.7370   53.4250 O.3       1 ATP        -0.5870
     21 C1'        48.1330   38.4090   51.7210 C.3       1 ATP         0.3920
     22 N9         48.8460   39.4640   50.9860 N.pl3     1 ATP        -0.5564
     23 C8         48.6160   40.8420   50.9450 C.cat     1 ATP         0.2972
     24 N7         49.4250   41.4890   50.1650 N.pl3     1 ATP        -0.5133
     25 C5         50.2320   40.4700   49.6640 C.ar      1 ATP        -0.2768
     26 C6         51.3080   40.4660   48.7310 C.ar      1 ATP         0.7688
     27 N6         51.7210   41.5680   48.1290 N.pl3     1 ATP        -0.9545
     28 N1         51.9120   39.2740   48.4470 N.ar      1 ATP        -0.7553
     29 C2         51.4930   38.1510   49.0290 C.ar      1 ATP         0.7126
     30 N3         50.4910   38.0160   49.9000 N.ar      1 ATP        -0.6814
     31 C4         49.8920   39.2530   50.1710 C.ar      1 ATP         0.6315
     32 HOG3       46.5992   46.3224   58.8095 H         1 ATP         0.4277
     33 HOA2       43.3173   42.8293   52.1230 H         1 ATP         0.4783
     34 H5'1       47.6492   40.3457   53.1926 H         1 ATP         0.0614
     35 H5'2       46.5714   40.2346   54.6253 H         1 ATP         0.0614
     36 H4'        45.6654   38.3452   53.6190 H         1 ATP         0.1031
     37 H3'        48.2020   39.8423   54.4542 H         1 ATP         0.0705
     38 HO3'       47.0751   38.8571   56.1666 H         1 ATP         0.4822
     39 H2'        49.7910   38.3380   53.2466 H         1 ATP         0.0743
     40 HO2'       49.0003   36.3505   54.3868 H         1 ATP         0.4529
     41 H1'        48.1676   37.5175   51.0776 H         1 ATP         0.1420
     42 H8         47.8360   41.3900   51.4990 H         1 ATP         0.2879
     43 HN61       51.2389   42.5309   48.3533 H         1 ATP         0.4565
     44 HN62       52.5468   41.5221   47.4038 H         1 ATP         0.4565
     45 H2         52.0360   37.2290   48.7590 H         1 ATP         0.0822
     46 H46        49.3328   42.5801   50.0600 H         1 ATP         0.5047
@<TRIPOS>BOND
     1    1    2 2
     2    1    3 1
     3    1    4 1
     4    1    8 1
     5    4   32 1
     6    5    6 2
     7    5    7 1
     8    5    8 1
     9    5   12 1
    10    9   10 2
    11    9   11 1
    12    9   12 1
    13    9   13 1
    14   11   33 1
    15   13   14 1
    16   14   15 1
    17   14   34 1
    18   14   35 1
    19   15   16 1
    20   15   17 1
    21   15   36 1
    22   16   21 1
    23   17   18 1
    24   17   19 1
    25   17   37 1
    26   18   38 1
    27   19   20 1
    28   19   21 1
    29   19   39 1
    30   20   40 1
    31   21   22 1
    32   21   41 1
    33   22   23 ar
    34   22   31 ar
    35   23   24 ar
    36   23   42 1
    37   24   25 ar
    38   24   46 1
    39   25   26 ar
    40   25   31 ar
    41   26   27 1
    42   26   28 ar
    43   27   43 1
    44   27   44 1
    45   28   29 ar
    46   29   30 ar
    47   29   45 1
    48   30   31 ar
@<TRIPOS>SUBSTRUCTURE
     1 ATP         1 GROUP   0 A     ****
@<TRIPOS>MOLECULE
[5-(6-aminopurin-9-yl)-3,4-dihydroxy-tetrahydrofuran-2-yl]methyl [hydroxy(phosphonooxy)phosphoryl] phosphate
   46    48     1     0     0
SMALL
USER_CHARGES

@<TRIPOS>ATOM
      1 PG         46.1070   45.1820   56.9500 P.3       1 ATP         1.8253
      2 O1G        45.7790   46.3300   56.0520 O.2       1 ATP        -0.8542
      3 O2G        47.3820   44.4970   56.6260 O.3       1 ATP        -0.7996
      4 O3G        45.9720   45.5300   58.3750 O.3       1 ATP        -0.7996
      5 PB         43.9110   43.7400   55.6550 P.3       1 ATP         1.9280
      6 O1B        42.9750   42.7220   55.9860 O.2       1 ATP        -0.8983
      7 O2B        43.6030   44.7670   54.6780 O.3       1 ATP        -0.7984
      8 O3B        45.0410   44.0150   56.7380 O.3       1 ATP        -0.8205
      9 PA         45.2280   42.6690   53.2570 P.3       1 ATP         1.5587
     10 O1A        46.3800   43.3960   52.7880 O.2       1 ATP        -0.8181
     11 O2A        44.1830   42.1900   52.3510 O.3       1 ATP        -0.8181
     12 O3A        44.9170   42.7160   54.7890 O.3       1 ATP        -0.7876
     13 O5'        46.1720   41.5680   53.3020 O.3       1 ATP        -0.5633
     14 C5'        46.6090   40.4220   53.5420 C.3       1 ATP         0.1773
     15 C4'        46.5200   38.9890   53.3640 C.3       1 ATP         0.1275
     16 O4'        46.7850   38.9080   51.9480 O.3       1 ATP        -0.4025
     17 C3'        47.8080   38.8740   54.1120 C.3       1 ATP         0.0850
     18 O3'        47.7130   38.3570   55.4230 O.3       1 ATP        -0.5873
     19 C2'        48.7190   38.1160   53.1390 C.3       1 ATP         0.0626
     20 O2'        48.6320   36.7370   53.4250 O.3       1 ATP        -0.5863
     21 C1'        48.1330   38.4090   51.7210 C.3       1 ATP         0.4347
     22 N9         48.8460   39.4640   50.9860 N.pl3     1 ATP        -0.6820
     23 C8         48.6160   40.8420   50.9450 C.ar      1 ATP         0.5353
     24 N7         49.4250   41.4890   50.1650 N.ar      1 ATP        -0.5538
     25 C5         50.2320   40.4700   49.6640 C.ar      1 ATP        -0.2313
     26 C6         51.3080   40.4660   48.7310 C.ar      1 ATP         0.7585
     27 N6         51.7210   41.5680   48.1290 N.pl3     1 ATP        -0.9712
     28 N1         51.9120   39.2740   48.4470 N.ar      1 ATP        -0.8053
     29 C2         51.4930   38.1510   49.0290 C.ar      1 ATP         0.6787
     30 N3         50.4910   38.0160   49.9000 N.ar      1 ATP        -0.7188
     31 C4         49.8920   39.2530   50.1710 C.ar      1 ATP         0.6042
     32 HOG2       48.3320   45.0490   56.6795 H         1 ATP         0.4900
     33 HOG3       46.5992   46.3224   58.8095 H         1 ATP         0.4900
     34 HOB2       42.9452   45.6055   54.9502 H         1 ATP         0.4743
     35 H5'1       47.6492   40.3457   53.1926 H         1 ATP         0.0380
     36 H5'2       46.5714   40.2346   54.6253 H         1 ATP         0.0380
     37 H4'        45.6654   38.3452   53.6190 H         1 ATP         0.1192
     38 H3'        48.2020   39.8423   54.4542 H         1 ATP         0.0683
     39 HO3'       47.0751   38.8571   56.1666 H         1 ATP         0.4088
     40 H2'        49.7910   38.3380   53.2466 H         1 ATP         0.0627
     41 HO2'       49.0003   36.3505   54.3868 H         1 ATP         0.4101
     42 H1'        48.1676   37.5175   51.0776 H         1 ATP         0.1112
     43 H8         47.8360   41.3900   51.4990 H         1 ATP         0.0755
     44 HN61       51.2389   42.5309   48.3533 H         1 ATP         0.4443
     45 HN62       52.5468   41.5221   47.4038 H         1 ATP         0.4443
     46 H2         52.0360   37.2290   48.7590 H         1 ATP         0.0454
@<TRIPOS>BOND
     1    1    2 2
     2    1    3 1
     3    1    4 1
     4    1    8 1
     5    3   32 1
     6    4   33 1
     7    5    6 2
     8    5    7 1
     9    5    8 1
    10    5   12 1
    11    7   34 1
    12    9   10 2
    13    9   11 1
    14    9   12 1
    15    9   13 1
    16   13   14 1
    17   14   15 1
    18   14   35 1
    19   14   36 1
    20   15   16 1
    21   15   17 1
    22   15   37 1
    23   16   21 1
    24   17   18 1
    25   17   19 1
    26   17   38 1
    27   18   39 1
    28   19   20 1
    29   19   21 1
    30   19   40 1
    31   20   41 1
    32   21   22 1
    33   21   42 1
    34   22   23 ar
    35   22   31 ar
    36   23   24 ar
    37   23   43 1
    38   24   25 ar
    39   25   26 ar
    40   25   31 ar
    41   26   27 1
    42   26   28 ar
    43   27   44 1
    44   27   45 1
    45   28   29 ar
    46   29   30 ar
    47   29   46 1
    48   30   31 ar
@<TRIPOS>SUBSTRUCTURE
     1 ATP         1 GROUP   0 A     ****
@<TRIPOS>MOLECULE
[[[5-(6-amino-1,8-dihydropurine-6,8-diylium-7-id-9-yl)-3,4-dihydroxy-tetrahydrofuran-2-yl]methoxy-hydroxy-phosphoryl]oxy-hydroxy-phosphoryl] hydrogen phosphate
   47    49     1     0     0
SMALL
USER_CHARGES

@<TRIPOS>ATOM
      1 PG         46.1070   45.1820   56.9500 P.3       1 ATP         1.5356
      2 O1G        45.7790   46.3300   56.0520 O.2       1 ATP        -0.8145
      3 O2G        47.3820   44.4970   56.6260 O.3       1 ATP        -0.8145
      4 O3G        45.9720   45.5300   58.3750 O.3       1 ATP        -0.7805
      5 PB         43.9110   43.7400   55.6550 P.3       1 ATP         1.8931
      6 O1B        42.9750   42.7220   55.9860 O.2       1 ATP        -0.8670
      7 O2B        43.6030   44.7670   54.6780 O.3       1 ATP        -0.8035
      8 O3B        45.0410   44.0150   56.7380 O.3       1 ATP        -0.8008
      9 PA         45.2280   42.6690   53.2570 P.3       1 ATP         1.7972
     10 O1A        46.3800   43.3960   52.7880 O.2       1 ATP        -0.8074
     11 O2A        44.1830   42.1900   52.3510 O.3       1 ATP        -0.8229
     12 O3A        44.9170   42.7160   54.7890 O.3       1 ATP        -0.8162
     13 O5'        46.1720   41.5680   53.3020 O.3       1 ATP        -0.5733
     14 C5'        46.6090   40.4220   53.5420 C.3       1 ATP         0.1774
     15 C4'        46.5200   38.9890   53.3640 C.3       1 ATP         0.1253
     16 O4'        46.7850   38.9080   51.9480 O.3       1 ATP        -0.4100
     17 C3'        47.8080   38.8740   54.1120 C.3       1 ATP         0.1382
     18 O3'        47.7130   38.3570   55.4230 O.3       1 ATP        -0.5732
     19 C2'        48.7190   38.1160   53.1390 C.3       1 ATP         0.0641
     20 O2'        48.6320   36.7370   53.4250 O.3       1 ATP        -0.5706
     21 C1'        48.1330   38.4090   51.7210 C.3       1 ATP         0.3863
     22 N9         48.8460   39.4640   50.9860 N.pl3     1 ATP        -0.4542
     23 C8         48.6160   40.8420   50.9450 C.cat     1 ATP         0.1828
     24 N7         49.4250   41.4890   50.1650 N.ar      1 ATP        -0.2573
     25 C5         50.2320   40.4700   49.6640 C.ar      1 ATP        -0.1365
     26 C6         51.3080   40.4660   48.7310 C.cat     1 ATP         0.4925
     27 N6         51.7210   41.5680   48.1290 N.pl3     1 ATP        -0.8096
     28 N1         51.9120   39.2740   48.4470 N.pl3     1 ATP        -0.6957
     29 C2         51.4930   38.1510   49.0290 C.ar      1 ATP         0.6387
     30 N3         50.4910   38.0160   49.9000 N.ar      1 ATP        -0.5277
     31 C4         49.8920   39.2530   50.1710 C.ar      1 ATP         0.2806
     32 HOG3       46.5992   46.3224   58.8095 H         1 ATP         0.4434
     33 HOB2       42.9452   45.6055   54.9502 H         1 ATP         0.5013
     34 HOA2       43.3173   42.8293   52.1230 H         1 ATP         0.5032
     35 H5'1       47.6492   40.3457   53.1926 H         1 ATP         0.0501
     36 H5'2       46.5714   40.2346   54.6253 H         1 ATP         0.0501
     37 H4'        45.6654   38.3452   53.6190 H         1 ATP         0.1311
     38 H3'        48.2020   39.8423   54.4542 H         1 ATP         0.0962
     39 HO3'       47.0751   38.8571   56.1666 H         1 ATP         0.4266
     40 H2'        49.7910   38.3380   53.2466 H         1 ATP         0.0713
     41 HO2'       49.0003   36.3505   54.3868 H         1 ATP         0.4144
     42 H1'        48.1676   37.5175   51.0776 H         1 ATP         0.1232
     43 H8         47.8360   41.3900   51.4990 H         1 ATP         0.2597
     44 HN61       51.2389   42.5309   48.3533 H         1 ATP         0.4847
     45 HN62       52.5468   41.5221   47.4038 H         1 ATP         0.4847
     46 H2         52.0360   37.2290   48.7590 H         1 ATP         0.1005
     47 H47        52.7492   39.2376   47.7344 H         1 ATP         0.4832
@<TRIPOS>BOND
     1    1    2 2
     2    1    3 1
     3    1    4 1
     4    1    8 1
     5    4   32 1
     6    5    6 2
     7    5    7 1
     8    5    8 1
     9    5   12 1
    10    7   33 1
    11    9   10 2
    12    9   11 1
    13    9   12 1
    14    9   13 1
    15   11   34 1
    16   13   14 1
    17   14   15 1
    18   14   35 1
    19   14   36 1
    20   15   16 1
    21   15   17 1
    22   15   37 1
    23   16   21 1
    24   17   18 1
    25   17   19 1
    26   17   38 1
    27   18   39 1
    28   19   20 1
    29   19   21 1
    30   19   40 1
    31   20   41 1
    32   21   22 1
    33   21   42 1
    34   22   23 ar
    35   22   31 ar
    36   23   24 ar
    37   23   43 1
    38   24   25 ar
    39   25   26 ar
    40   25   31 ar
    41   26   27 1
    42   26   28 ar
    43   27   44 1
    44   27   45 1
    45   28   29 ar
    46   28   47 1
    47   29   30 ar
    48   29   46 1
    49   30   31 ar
@<TRIPOS>SUBSTRUCTURE
     1 ATP         1 GROUP   0 A     ****
@<TRIPOS>MOLECULE
[[[5-(6-amino-7,8-dihydropurin-8-ylium-9-yl)-3,4-dihydroxy-tetrahydrofuran-2-yl]methoxy-oxido-phosphoryl]oxy-hydroxy-phosphoryl] hydrogen phosphate
   46    48     1     0     0
SMALL
USER_CHARGES

@<TRIPOS>ATOM
      1 PG         46.1070   45.1820   56.9500 P.3       1 ATP         1.5385
      2 O1G        45.7790   46.3300   56.0520 O.2       1 ATP        -0.8278
      3 O2G        47.3820   44.4970   56.6260 O.3       1 ATP        -0.8278
      4 O3G        45.9720   45.5300   58.3750 O.3       1 ATP        -0.7782
      5 PB         43.9110   43.7400   55.6550 P.3       1 ATP         1.9035
      6 O1B        42.9750   42.7220   55.9860 O.2       1 ATP        -0.8993
      7 O2B        43.6030   44.7670   54.6780 O.3       1 ATP        -0.7958
      8 O3B        45.0410   44.0150   56.7380 O.3       1 ATP        -0.7903
      9 PA         45.2280   42.6690   53.2570 P.3       1 ATP         1.5981
     10 O1A        46.3800   43.3960   52.7880 O.2       1 ATP        -0.8591
     11 O2A        44.1830   42.1900   52.3510 O.3       1 ATP        -0.8591
     12 O3A        44.9170   42.7160   54.7890 O.3       1 ATP        -0.8247
     13 O5'        46.1720   41.5680   53.3020 O.3       1 ATP        -0.5593
     14 C5'        46.6090   40.4220   53.5420 C.3       1 ATP         0.2179
     15 C4'        46.5200   38.9890   53.3640 C.3       1 ATP         0.0897
     16 O4'        46.7850   38.9080   51.9480 O.3       1 ATP        -0.3870
     17 C3'        47.8080   38.8740   54.1120 C.3       1 ATP         0.0781
     18 O3'        47.7130   38.3570   55.4230 O.3       1 ATP        -0.5687
     19 C2'        48.7190   38.1160   53.1390 C.3       1 ATP         0.0822
     20 O2'        48.6320   36.7370   53.4250 O.3       1 ATP        -0.5805
     21 C1'        48.1330   38.4090   51.7210 C.3       1 ATP         0.3881
     22 N9         48.8460   39.4640   50.9860 N.pl3     1 ATP        -0.5577
     23 C8         48.6160   40.8420   50.9450 C.cat     1 ATP         0.3023
     24 N7         49.4250   41.4890   50.1650 N.pl3     1 ATP        -0.5193
     25 C5         50.2320   40.4700   49.6640 C.ar      1 ATP        -0.2702
     26 C6         51.3080   40.4660   48.7310 C.ar      1 ATP         0.7549
     27 N6         51.7210   41.5680   48.1290 N.pl3     1 ATP        -0.9457
     28 N1         51.9120   39.2740   48.4470 N.ar      1 ATP        -0.7536
     29 C2         51.4930   38.1510   49.0290 C.ar      1 ATP         0.7071
     30 N3         50.4910   38.0160   49.9000 N.ar      1 ATP        -0.6788
     31 C4         49.8920   39.2530   50.1710 C.ar      1 ATP         0.6211
     32 HOG3       46.5992   46.3224   58.8095 H         1 ATP         0.4277
     33 HOB2       42.9452   45.6055   54.9502 H         1 ATP         0.4475
     34 H5'1       47.6492   40.3457   53.1926 H         1 ATP         0.0338
     35 H5'2       46.5714   40.2346   54.6253 H         1 ATP         0.0338
     36 H4'        45.6654   38.3452   53.6190 H         1 ATP         0.1289
     37 H3'        48.2020   39.8423   54.4542 H         1 ATP         0.0647
     38 HO3'       47.0751   38.8571   56.1666 H         1 ATP         0.4217
     39 H2'        49.7910   38.3380   53.2466 H         1 ATP         0.0758
     40 HO2'       49.0003   36.3505   54.3868 H         1 ATP         0.4441
     41 H1'        48.1676   37.5175   51.0776 H         1 ATP         0.1388
     42 H8         47.8360   41.3900   51.4990 H         1 ATP         0.3018
     43 HN61       51.2389   42.5309   48.3533 H         1 ATP         0.4491
     44 HN62       52.5468   41.5221   47.4038 H         1 ATP         0.4491
     45 H2         52.0360   37.2290   48.7590 H         1 ATP         0.0809
     46 H46        49.3328   42.5801   50.0600 H         1 ATP         0.5037
@<TRIPOS>BOND
     1    1    2 2
     2    1    3 1
     3    1    4 1
     4    1    8 1
     5    4   32 1
     6    5    6 2
     7    5    7 1
     8    5    8 1
     9    5   12 1
    10    7   33 1
    11    9   10 2
    12    9   11 1
    13    9   12 1
    14    9   13 1
    15   13   14 1
    16   14   15 1
    17   14   34 1
    18   14   35 1
    19   15   16 1
    20   15   17 1
    21   15   36 1
    22   16   21 1
    23   17   18 1
    24   17   19 1
    25   17   37 1
    26   18   38 1
    27   19   20 1
    28   19   21 1
    29   19   39 1
    30   20   40 1
    31   21   22 1
    32   21   41 1
    33   22   23 ar
    34   22   31 ar
    35   23   24 ar
    36   23   42 1
    37   24   25 ar
    38   24   46 1
    39   25   26 ar
    40   25   31 ar
    41   26   27 1
    42   26   28 ar
    43   27   43 1
    44   27   44 1
    45   28   29 ar
    46   29   30 ar
    47   29   45 1
    48   30   31 ar
@<TRIPOS>SUBSTRUCTURE
     1 ATP         1 GROUP   0 A     ****
@<TRIPOS>MOLECULE
[[[5-(6-aminopurin-9-yl)-3,4-dihydroxy-tetrahydrofuran-2-yl]methoxy-oxido-phosphoryl]oxy-hydroxy-phosphoryl] phosphate
   44    46     1     0     0
SMALL
USER_CHARGES

@<TRIPOS>ATOM
      1 PG         46.1070   45.1820   56.9500 P.3       1 ATP         1.4112
      2 O1G        45.7790   46.3300   56.0520 O.2       1 ATP        -0.9278
      3 O2G        47.3820   44.4970   56.6260 O.3       1 ATP        -0.9278
      4 O3G        45.9720   45.5300   58.3750 O.3       1 ATP        -0.9278
      5 PB         43.9110   43.7400   55.6550 P.3       1 ATP         1.8801
      6 O1B        42.9750   42.7220   55.9860 O.2       1 ATP        -0.9496
      7 O2B        43.6030   44.7670   54.6780 O.3       1 ATP        -0.8021
      8 O3B        45.0410   44.0150   56.7380 O.3       1 ATP        -0.7666
      9 PA         45.2280   42.6690   53.2570 P.3       1 ATP         1.6092
     10 O1A        46.3800   43.3960   52.7880 O.2       1 ATP        -0.8731
     11 O2A        44.1830   42.1900   52.3510 O.3       1 ATP        -0.8731
     12 O3A        44.9170   42.7160   54.7890 O.3       1 ATP        -0.8171
     13 O5'        46.1720   41.5680   53.3020 O.3       1 ATP        -0.5601
     14 C5'        46.6090   40.4220   53.5420 C.3       1 ATP         0.2100
     15 C4'        46.5200   38.9890   53.3640 C.3       1 ATP         0.1103
     16 O4'        46.7850   38.9080   51.9480 O.3       1 ATP        -0.3785
     17 C3'        47.8080   38.8740   54.1120 C.3       1 ATP         0.0707
     18 O3'        47.7130   38.3570   55.4230 O.3       1 ATP        -0.5795
     19 C2'        48.7190   38.1160   53.1390 C.3       1 ATP         0.0683
     20 O2'        48.6320   36.7370   53.4250 O.3       1 ATP        -0.6007
     21 C1'        48.1330   38.4090   51.7210 C.3       1 ATP         0.3995
     22 N9         48.8460   39.4640   50.9860 N.pl3     1 ATP        -0.6807
     23 C8         48.6160   40.8420   50.9450 C.ar      1 ATP         0.5807
     24 N7         49.4250   41.4890   50.1650 N.ar      1 ATP        -0.5798
     25 C5         50.2320   40.4700   49.6640 C.ar      1 ATP        -0.2019
     26 C6         51.3080   40.4660   48.7310 C.ar      1 ATP         0.6989
     27 N6         51.7210   41.5680   48.1290 N.pl3     1 ATP        -0.9254
     28 N1         51.9120   39.2740   48.4470 N.ar      1 ATP        -0.8030
     29 C2         51.4930   38.1510   49.0290 C.ar      1 ATP         0.6468
     30 N3         50.4910   38.0160   49.9000 N.ar      1 ATP        -0.7054
     31 C4         49.8920   39.2530   50.1710 C.ar      1 ATP         0.5670
     32 HOB2       42.9452   45.6055   54.9502 H         1 ATP         0.4201
     33 H5'1       47.6492   40.3457   53.1926 H         1 ATP         0.0349
     34 H5'2       46.5714   40.2346   54.6253 H         1 ATP         0.0349
     35 H4'        45.6654   38.3452   53.6190 H         1 ATP         0.0942
     36 H3'        48.2020   39.8423   54.4542 H         1 ATP         0.0687
     37 HO3'       47.0751   38.8571   56.1666 H         1 ATP         0.3967
     38 H2'        49.7910   38.3380   53.2466 H         1 ATP         0.0780
     39 HO2'       49.0003   36.3505   54.3868 H         1 ATP         0.4226
     40 H1'        48.1676   37.5175   51.0776 H         1 ATP         0.0978
     41 H8         47.8360   41.3900   51.4990 H         1 ATP         0.1298
     42 HN61       51.2389   42.5309   48.3533 H         1 ATP         0.4089
     43 HN62       52.5468   41.5221   47.4038 H         1 ATP         0.4089
     44 H2         52.0360   37.2290   48.7590 H         1 ATP         0.0322
@<TRIPOS>BOND
     1    1    2 2
     2    1    3 1
     3    1    4 1
     4    1    8 1
     5    5    6 2
     6    5    7 1
     7    5    8 1
     8    5   12 1
     9    7   32 1
    10    9   10 2
    11    9   11 1
    12    9   12 1
    13    9   13 1
    14   13   14 1
    15   14   15 1
    16   14   33 1
    17   14   34 1
    18   15   16 1
    19   15   17 1
    20   15   35 1
    21   16   21 1
    22   17   18 1
    23   17   19 1
    24   17   36 1
    25   18   37 1
    26   19   20 1
    27   19   21 1
    28   19   38 1
    29   20   39 1
    30   21   22 1
    31   21   40 1
    32   22   23 ar
    33   22   31 ar
    34   23   24 ar
    35   23   41 1
    36   24   25 ar
    37   25   26 ar
    38   25   31 ar
    39   26   27 1
    40   26   28 ar
    41   27   42 1
    42   27   43 1
    43   28   29 ar
    44   29   30 ar
    45   29   44 1
    46   30   31 ar
@<TRIPOS>SUBSTRUCTURE
     1 ATP         1 GROUP   0 A     ****
@<TRIPOS>MOLECULE
[[5-(6-amino-7,8-dihydropurin-8-ylium-9-yl)-3,4-dihydroxy-tetrahydrofuran-2-yl]methoxy-oxido-phosphoryl] phosphono phosphate
   46    48     1     0     0
SMALL
USER_CHARGES

@<TRIPOS>ATOM
      1 PG         46.1070   45.1820   56.9500 P.3       1 ATP         1.7299
      2 O1G        45.7790   46.3300   56.0520 O.2       1 ATP        -0.8561
      3 O2G        47.3820   44.4970   56.6260 O.3       1 ATP        -0.7774
      4 O3G        45.9720   45.5300   58.3750 O.3       1 ATP        -0.7774
      5 PB         43.9110   43.7400   55.6550 P.3       1 ATP         1.6756
      6 O1B        42.9750   42.7220   55.9860 O.2       1 ATP        -0.8400
      7 O2B        43.6030   44.7670   54.6780 O.3       1 ATP        -0.8400
      8 O3B        45.0410   44.0150   56.7380 O.3       1 ATP        -0.8070
      9 PA         45.2280   42.6690   53.2570 P.3       1 ATP         1.5862
     10 O1A        46.3800   43.3960   52.7880 O.2       1 ATP        -0.8743
     11 O2A        44.1830   42.1900   52.3510 O.3       1 ATP        -0.8743
     12 O3A        44.9170   42.7160   54.7890 O.3       1 ATP        -0.8192
     13 O5'        46.1720   41.5680   53.3020 O.3       1 ATP        -0.5649
     14 C5'        46.6090   40.4220   53.5420 C.3       1 ATP         0.1878
     15 C4'        46.5200   38.9890   53.3640 C.3       1 ATP         0.1219
     16 O4'        46.7850   38.9080   51.9480 O.3       1 ATP        -0.3683
     17 C3'        47.8080   38.8740   54.1120 C.3       1 ATP         0.0771
     18 O3'        47.7130   38.3570   55.4230 O.3       1 ATP        -0.5719
     19 C2'        48.7190   38.1160   53.1390 C.3       1 ATP         0.0606
     20 O2'        48.6320   36.7370   53.4250 O.3       1 ATP        -0.5876
     21 C1'        48.1330   38.4090   51.7210 C.3       1 ATP         0.4216
     22 N9         48.8460   39.4640   50.9860 N.pl3     1 ATP        -0.5648
     23 C8         48.6160   40.8420   50.9450 C.cat     1 ATP         0.3215
     24 N7         49.4250   41.4890   50.1650 N.pl3     1 ATP        -0.5146
     25 C5         50.2320   40.4700   49.6640 C.ar      1 ATP        -0.2708
     26 C6         51.3080   40.4660   48.7310 C.ar      1 ATP         0.7538
     27 N6         51.7210   41.5680   48.1290 N.pl3     1 ATP        -0.9480
     28 N1         51.9120   39.2740   48.4470 N.ar      1 ATP        -0.7590
     29 C2         51.4930   38.1510   49.0290 C.ar      1 ATP         0.7032
     30 N3         50.4910   38.0160   49.9000 N.ar      1 ATP        -0.6844
     31 C4         49.8920   39.2530   50.1710 C.ar      1 ATP         0.6344
     32 HOG2       48.3320   45.0490   56.6795 H         1 ATP         0.4671
     33 HOG3       46.5992   46.3224   58.8095 H         1 ATP         0.4671
     34 H5'1       47.6492   40.3457   53.1926 H         1 ATP         0.0287
     35 H5'2       46.5714   40.2346   54.6253 H         1 ATP         0.0287
     36 H4'        45.6654   38.3452   53.6190 H         1 ATP         0.1312
     37 H3'        48.2020   39.8423   54.4542 H         1 ATP         0.0878
     38 HO3'       47.0751   38.8571   56.1666 H         1 ATP         0.3982
     39 H2'        49.7910   38.3380   53.2466 H         1 ATP         0.0634
     40 HO2'       49.0003   36.3505   54.3868 H         1 ATP         0.4164
     41 H1'        48.1676   37.5175   51.0776 H         1 ATP         0.1388
     42 H8         47.8360   41.3900   51.4990 H         1 ATP         0.3232
     43 HN61       51.2389   42.5309   48.3533 H         1 ATP         0.4473
     44 HN62       52.5468   41.5221   47.4038 H         1 ATP         0.4473
     45 H2         52.0360   37.2290   48.7590 H         1 ATP         0.0748
     46 H46        49.3328   42.5801   50.0600 H         1 ATP         0.5064
@<TRIPOS>BOND
     1    1    2 2
     2    1    3 1
     3    1    4 1
     4    1    8 1
     5    3   32 1
     6    4   33 1
     7    5    6 2
     8    5    7 1
     9    5    8 1
    10    5   12 1
    11    9   10 2
    12    9   11 1
    13    9   12 1
    14    9   13 1
    15   13   14 1
    16   14   15 1
    17   14   34 1
    18   14   35 1
    19   15   16 1
    20   15   17 1
    21   15   36 1
    22   16   21 1
    23   17   18 1
    24   17   19 1
    25   17   37 1
    26   18   38 1
    27   19   20 1
    28   19   21 1
    29   19   39 1
    30   20   40 1
    31   21   22 1
    32   21   41 1
    33   22   23 ar
    34   22   31 ar
    35   23   24 ar
    36   23   42 1
    37   24   25 ar
    38   24   46 1
    39   25   26 ar
    40   25   31 ar
    41   26   27 1
    42   26   28 ar
    43   27   43 1
    44   27   44 1
    45   28   29 ar
    46   29   30 ar
    47   29   45 1
    48   30   31 ar
@<TRIPOS>SUBSTRUCTURE
     1 ATP         1 GROUP   0 A     ****
@<TRIPOS>MOLECULE
[5-(6-amino-1,8-dihydropurine-6,8-diylium-7-id-9-yl)-3,4-dihydroxy-tetrahydrofuran-2-yl]methyl [hydroxy(phosphonooxy)phosphoryl] phosphate
   47    49     1     0     0
SMALL
USER_CHARGES

@<TRIPOS>ATOM
      1 PG         46.1070   45.1820   56.9500 P.3       1 ATP         1.8277
      2 O1G        45.7790   46.3300   56.0520 O.2       1 ATP        -0.8598
      3 O2G        47.3820   44.4970   56.6260 O.3       1 ATP        -0.7987
      4 O3G        45.9720   45.5300   58.3750 O.3       1 ATP        -0.7987
      5 PB         43.9110   43.7400   55.6550 P.3       1 ATP         1.9286
      6 O1B        42.9750   42.7220   55.9860 O.2       1 ATP        -0.8807
      7 O2B        43.6030   44.7670   54.6780 O.3       1 ATP        -0.8045
      8 O3B        45.0410   44.0150   56.7380 O.3       1 ATP        -0.8161
      9 PA         45.2280   42.6690   53.2570 P.3       1 ATP         1.5673
     10 O1A        46.3800   43.3960   52.7880 O.2       1 ATP        -0.8164
     11 O2A        44.1830   42.1900   52.3510 O.3       1 ATP        -0.8164
     12 O3A        44.9170   42.7160   54.7890 O.3       1 ATP        -0.7949
     13 O5'        46.1720   41.5680   53.3020 O.3       1 ATP        -0.5608
     14 C5'        46.6090   40.4220   53.5420 C.3       1 ATP         0.1796
     15 C4'        46.5200   38.9890   53.3640 C.3       1 ATP         0.0943
     16 O4'        46.7850   38.9080   51.9480 O.3       1 ATP        -0.3909
     17 C3'        47.8080   38.8740   54.1120 C.3       1 ATP         0.0785
     18 O3'        47.7130   38.3570   55.4230 O.3       1 ATP        -0.6085
     19 C2'        48.7190   38.1160   53.1390 C.3       1 ATP         0.1210
     20 O2'        48.6320   36.7370   53.4250 O.3       1 ATP        -0.5872
     21 C1'        48.1330   38.4090   51.7210 C.3       1 ATP         0.3969
     22 N9         48.8460   39.4640   50.9860 N.pl3     1 ATP        -0.4386
     23 C8         48.6160   40.8420   50.9450 C.cat     1 ATP         0.1810
     24 N7         49.4250   41.4890   50.1650 N.ar      1 ATP        -0.2658
     25 C5         50.2320   40.4700   49.6640 C.ar      1 ATP        -0.1415
     26 C6         51.3080   40.4660   48.7310 C.cat     1 ATP         0.4868
     27 N6         51.7210   41.5680   48.1290 N.pl3     1 ATP        -0.8179
     28 N1         51.9120   39.2740   48.4470 N.pl3     1 ATP        -0.6954
     29 C2         51.4930   38.1510   49.0290 C.ar      1 ATP         0.6354
     30 N3         50.4910   38.0160   49.9000 N.ar      1 ATP        -0.5191
     31 C4         49.8920   39.2530   50.1710 C.ar      1 ATP         0.3076
     32 HOG2       48.3320   45.0490   56.6795 H         1 ATP         0.4915
     33 HOG3       46.5992   46.3224   58.8095 H         1 ATP         0.4915
     34 HOB2       42.9452   45.6055   54.9502 H         1 ATP         0.4783
     35 H5'1       47.6492   40.3457   53.1926 H         1 ATP         0.0357
     36 H5'2       46.5714   40.2346   54.6253 H         1 ATP         0.0357
     37 H4'        45.6654   38.3452   53.6190 H         1 ATP         0.1191
     38 H3'        48.2020   39.8423   54.4542 H         1 ATP         0.0865
     39 HO3'       47.0751   38.8571   56.1666 H         1 ATP         0.4343
     40 H2'        49.7910   38.3380   53.2466 H         1 ATP         0.0733
     41 HO2'       49.0003   36.3505   54.3868 H         1 ATP         0.4409
     42 H1'        48.1676   37.5175   51.0776 H         1 ATP         0.1242
     43 H8         47.8360   41.3900   51.4990 H         1 ATP         0.2605
     44 HN61       51.2389   42.5309   48.3533 H         1 ATP         0.4802
     45 HN62       52.5468   41.5221   47.4038 H         1 ATP         0.4802
     46 H2         52.0360   37.2290   48.7590 H         1 ATP         0.0976
     47 H47        52.7492   39.2376   47.7344 H         1 ATP         0.4778
@<TRIPOS>BOND
     1    1    2 2
     2    1    3 1
     3    1    4 1
     4    1    8 1
     5    3   32 1
     6    4   33 1
     7    5    6 2
     8    5    7 1
     9    5    8 1
    10    5   12 1
    11    7   34 1
    12    9   10 2
    13    9   11 1
    14    9   12 1
    15    9   13 1
    16   13   14 1
    17   14   15 1
    18   14   35 1
    19   14   36 1
    20   15   16 1
    21   15   17 1
    22   15   37 1
    23   16   21 1
    24   17   18 1
    25   17   19 1
    26   17   38 1
    27   18   39 1
    28   19   20 1
    29   19   21 1
    30   19   40 1
    31   20   41 1
    32   21   22 1
    33   21   42 1
    34   22   23 ar
    35   22   31 ar
    36   23   24 ar
    37   23   43 1
    38   24   25 ar
    39   25   26 ar
    40   25   31 ar
    41   26   27 1
    42   26   28 ar
    43   27   44 1
    44   27   45 1
    45   28   29 ar
    46   28   47 1
    47   29   30 ar
    48   29   46 1
    49   30   31 ar
@<TRIPOS>SUBSTRUCTURE
     1 ATP         1 GROUP   0 A     ****
@<TRIPOS>MOLECULE
[[[5-(6-aminopurin-9-yl)-3,4-dihydroxy-tetrahydrofuran-2-yl]methoxy-oxido-phosphoryl]oxy-oxido-phosphoryl] phosphate
   43    45     1     0     0
SMALL
USER_CHARGES

@<TRIPOS>ATOM
      1 PG         46.1070   45.1820   56.9500 P.3       1 ATP         1.3770
      2 O1G        45.7790   46.3300   56.0520 O.2       1 ATP        -0.9677
      3 O2G        47.3820   44.4970   56.6260 O.3       1 ATP        -0.9677
      4 O3G        45.9720   45.5300   58.3750 O.3       1 ATP        -0.9677
      5 PB         43.9110   43.7400   55.6550 P.3       1 ATP         1.5556
      6 O1B        42.9750   42.7220   55.9860 O.2       1 ATP        -0.9011
      7 O2B        43.6030   44.7670   54.6780 O.3       1 ATP        -0.9011
      8 O3B        45.0410   44.0150   56.7380 O.3       1 ATP        -0.7334
      9 PA         45.2280   42.6690   53.2570 P.3       1 ATP         1.4949
     10 O1A        46.3800   43.3960   52.7880 O.2       1 ATP        -0.8765
     11 O2A        44.1830   42.1900   52.3510 O.3       1 ATP        -0.8765
     12 O3A        44.9170   42.7160   54.7890 O.3       1 ATP        -0.7296
     13 O5'        46.1720   41.5680   53.3020 O.3       1 ATP        -0.5887
     14 C5'        46.6090   40.4220   53.5420 C.3       1 ATP         0.2136
     15 C4'        46.5200   38.9890   53.3640 C.3       1 ATP         0.0811
     16 O4'        46.7850   38.9080   51.9480 O.3       1 ATP        -0.4018
     17 C3'        47.8080   38.8740   54.1120 C.3       1 ATP         0.1038
     18 O3'        47.7130   38.3570   55.4230 O.3       1 ATP        -0.6406
     19 C2'        48.7190   38.1160   53.1390 C.3       1 ATP         0.0931
     20 O2'        48.6320   36.7370   53.4250 O.3       1 ATP        -0.5974
     21 C1'        48.1330   38.4090   51.7210 C.3       1 ATP         0.4237
     22 N9         48.8460   39.4640   50.9860 N.pl3     1 ATP        -0.6604
     23 C8         48.6160   40.8420   50.9450 C.ar      1 ATP         0.5724
     24 N7         49.4250   41.4890   50.1650 N.ar      1 ATP        -0.5948
     25 C5         50.2320   40.4700   49.6640 C.ar      1 ATP        -0.2221
     26 C6         51.3080   40.4660   48.7310 C.ar      1 ATP         0.7526
     27 N6         51.7210   41.5680   48.1290 N.pl3     1 ATP        -0.9835
     28 N1         51.9120   39.2740   48.4470 N.ar      1 ATP        -0.8434
     29 C2         51.4930   38.1510   49.0290 C.ar      1 ATP         0.6541
     30 N3         50.4910   38.0160   49.9000 N.ar      1 ATP        -0.7096
     31 C4         49.8920   39.2530   50.1710 C.ar      1 ATP         0.5683
     32 H5'1       47.6492   40.3457   53.1926 H         1 ATP         0.0410
     33 H5'2       46.5714   40.2346   54.6253 H         1 ATP         0.0410
     34 H4'        45.6654   38.3452   53.6190 H         1 ATP         0.0860
     35 H3'        48.2020   39.8423   54.4542 H         1 ATP         0.0492
     36 HO3'       47.0751   38.8571   56.1666 H         1 ATP         0.4877
     37 H2'        49.7910   38.3380   53.2466 H         1 ATP         0.0311
     38 HO2'       49.0003   36.3505   54.3868 H         1 ATP         0.4211
     39 H1'        48.1676   37.5175   51.0776 H         1 ATP         0.0971
     40 H8         47.8360   41.3900   51.4990 H         1 ATP         0.1259
     41 HN61       51.2389   42.5309   48.3533 H         1 ATP         0.4334
     42 HN62       52.5468   41.5221   47.4038 H         1 ATP         0.4334
     43 H2         52.0360   37.2290   48.7590 H         1 ATP         0.0265
@<TRIPOS>BOND
     1    1    2 2
     2    1    3 1
     3    1    4 1
     4    1    8 1
     5    5    6 2
     6    5    7 1
     7    5    8 1
     8    5   12 1
     9    9   10 2
    10    9   11 1
    11    9   12 1
    12    9   13 1
    13   13   14 1
    14   14   15 1
    15   14   32 1
    16   14   33 1
    17   15   16 1
    18   15   17 1
    19   15   34 1
    20   16   21 1
    21   17   18 1
    22   17   19 1
    23   17   35 1
    24   18   36 1
    25   19   20 1
    26   19   21 1
    27   19   37 1
    28   20   38 1
    29   21   22 1
    30   21   39 1
    31   22   23 ar
    32   22   31 ar
    33   23   24 ar
    34   23   40 1
    35   24   25 ar
    36   25   26 ar
    37   25   31 ar
    38   26   27 1
    39   26   28 ar
    40   27   41 1
    41   27   42 1
    42   28   29 ar
    43   29   30 ar
    44   29   43 1
    45   30   31 ar
@<TRIPOS>SUBSTRUCTURE
     1 ATP         1 GROUP   0 A     ****
@<TRIPOS>MOLECULE
[[[5-(6-amino-1,8-dihydropurine-6,8-diylium-7-id-9-yl)-3,4-dihydroxy-tetrahydrofuran-2-yl]methoxy-oxido-phosphoryl]oxy-hydroxy-phosphoryl] phosphate
   45    47     1     0     0
SMALL
USER_CHARGES

@<TRIPOS>ATOM
      1 PG         46.1070   45.1820   56.9500 P.3       1 ATP        -1.1921
      2 O1G        45.7790   46.3300   56.0520 O.2       1 ATP         0.3195
      3 O2G        47.3820   44.4970   56.6260 O.3       1 ATP         0.3195
      4 O3G        45.9720   45.5300   58.3750 O.3       1 ATP         0.3195
      5 PB         43.9110   43.7400   55.6550 P.3       1 ATP        -0.9715
      6 O1B        42.9750   42.7220   55.9860 O.2       1 ATP         0.2707
      7 O2B        43.6030   44.7670   54.6780 O.3       1 ATP         0.0326
      8 O3B        45.0410   44.0150   56.7380 O.3       1 ATP         0.4672
      9 PA         45.2280   42.6690   53.2570 P.3       1 ATP        -1.1062
     10 O1A        46.3800   43.3960   52.7880 O.2       1 ATP         0.3195
     11 O2A        44.1830   42.1900   52.3510 O.3       1 ATP         0.3195
     12 O3A        44.9170   42.7160   54.7890 O.3       1 ATP         0.4672
     13 O5'        46.1720   41.5680   53.3020 O.3       1 ATP         0.1618
     14 C5'        46.6090   40.4220   53.5420 C.3       1 ATP         0.1504
     15 C4'        46.5200   38.9890   53.3640 C.3       1 ATP         0.1111
     16 O4'        46.7850   38.9080   51.9480 O.3       1 ATP        -0.1436
     17 C3'        47.8080   38.8740   54.1120 C.3       1 ATP         0.1111
     18 O3'        47.7130   38.3570   55.4230 O.3       1 ATP        -0.2728
     19 C2'        48.7190   38.1160   53.1390 C.3       1 ATP         0.1111
     20 O2'        48.6320   36.7370   53.4250 O.3       1 ATP        -0.2728
     21 C1'        48.1330   38.4090   51.7210 C.3       1 ATP         0.2693
     22 N9         48.8460   39.4640   50.9860 N.pl3     1 ATP        -0.3222
     23 C8         48.6160   40.8420   50.9450 C.cat     1 ATP         0.1640
     24 N7         49.4250   41.4890   50.1650 N.ar      1 ATP        -0.1640
     25 C5         50.2320   40.4700   49.6640 C.ar      1 ATP         0.0820
     26 C6         51.3080   40.4660   48.7310 C.cat     1 ATP         0.1640
     27 N6         51.7210   41.5680   48.1290 N.pl3     1 ATP        -0.4916
     28 N1         51.9120   39.2740   48.4470 N.pl3     1 ATP        -0.4390
     29 C2         51.4930   38.1510   49.0290 C.ar      1 ATP         0.5691
     30 N3         50.4910   38.0160   49.9000 N.ar      1 ATP        -0.4283
     31 C4         49.8920   39.2530   50.1710 C.ar      1 ATP         0.2226
     32 HOB2       42.9452   45.6055   54.9502 H         1 ATP         0.2010
     33 H5'1       47.6492   40.3457   53.1926 H         1 ATP        -0.0393
     34 H5'2       46.5714   40.2346   54.6253 H         1 ATP        -0.0393
     35 H4'        45.6654   38.3452   53.6190 H         1 ATP        -0.0393
     36 H3'        48.2020   39.8423   54.4542 H         1 ATP        -0.0393
     37 HO3'       47.0751   38.8571   56.1666 H         1 ATP         0.2010
     38 H2'        49.7910   38.3380   53.2466 H         1 ATP        -0.0393
     39 HO2'       49.0003   36.3505   54.3868 H         1 ATP         0.2010
     40 H1'        48.1676   37.5175   51.0776 H         1 ATP        -0.0393
     41 H8         47.8360   41.3900   51.4990 H         1 ATP         0.0000
     42 HN61       51.2389   42.5309   48.3533 H         1 ATP         0.2048
     43 HN62       52.5468   41.5221   47.4038 H         1 ATP         0.2048
     44 H2         52.0360   37.2290   48.7590 H         1 ATP        -0.1292
     45 H45        52.7492   39.2376   47.7344 H         1 ATP         0.2048
@<TRIPOS>BOND
     1    1    2 2
     2    1    3 1
     3    1    4 1
     4    1    8 1
     5    5    6 2
     6    5    7 1
     7    5    8 1
     8    5   12 1
     9    7   32 1
    10    9   10 2
    11    9   11 1
    12    9   12 1
    13    9   13 1
    14   13   14 1
    15   14   15 1
    16   14   33 1
    17   14   34 1
    18   15   16 1
    19   15   17 1
    20   15   35 1
    21   16   21 1
    22   17   18 1
    23   17   19 1
    24   17   36 1
    25   18   37 1
    26   19   20 1
    27   19   21 1
    28   19   38 1
    29   20   39 1
    30   21   22 1
    31   21   40 1
    32   22   23 ar
    33   22   31 ar
    34   23   24 ar
    35   23   41 1
    36   24   25 ar
    37   25   26 ar
    38   25   31 ar
    39   26   27 1
    40   26   28 ar
    41   27   42 1
    42   27   43 1
    43   28   29 ar
    44   28   45 1
    45   29   30 ar
    46   29   44 1
    47   30   31 ar
@<TRIPOS>SUBSTRUCTURE
     1 ATP         1 GROUP   0 A     ****
@<TRIPOS>MOLECULE
[[[5-(6-amino-1,8-dihydropurine-6,8-diylium-7-id-9-yl)-3,4-dihydroxy-tetrahydrofuran-2-yl]methoxy-oxido-phosphoryl]oxy-oxido-phosphoryl] phosphate
   44    46     1     0     0
SMALL
USER_CHARGES

@<TRIPOS>ATOM
      1 PG         46.1070   45.1820   56.9500 P.3       1 ATP        -1.1921
      2 O1G        45.7790   46.3300   56.0520 O.2       1 ATP         0.3195
      3 O2G        47.3820   44.4970   56.6260 O.3       1 ATP         0.3195
      4 O3G        45.9720   45.5300   58.3750 O.3       1 ATP         0.3195
      5 PB         43.9110   43.7400   55.6550 P.3       1 ATP        -1.1062
      6 O1B        42.9750   42.7220   55.9860 O.2       1 ATP         0.3195
      7 O2B        43.6030   44.7670   54.6780 O.3       1 ATP         0.3195
      8 O3B        45.0410   44.0150   56.7380 O.3       1 ATP         0.4672
      9 PA         45.2280   42.6690   53.2570 P.3       1 ATP        -1.1062
     10 O1A        46.3800   43.3960   52.7880 O.2       1 ATP         0.3195
     11 O2A        44.1830   42.1900   52.3510 O.3       1 ATP         0.3195
     12 O3A        44.9170   42.7160   54.7890 O.3       1 ATP         0.4672
     13 O5'        46.1720   41.5680   53.3020 O.3       1 ATP         0.1618
     14 C5'        46.6090   40.4220   53.5420 C.3       1 ATP         0.1504
     15 C4'        46.5200   38.9890   53.3640 C.3       1 ATP         0.1111
     16 O4'        46.7850   38.9080   51.9480 O.3       1 ATP        -0.1436
     17 C3'        47.8080   38.8740   54.1120 C.3       1 ATP         0.1111
     18 O3'        47.7130   38.3570   55.4230 O.3       1 ATP        -0.2728
     19 C2'        48.7190   38.1160   53.1390 C.3       1 ATP         0.1111
     20 O2'        48.6320   36.7370   53.4250 O.3       1 ATP        -0.2728
     21 C1'        48.1330   38.4090   51.7210 C.3       1 ATP         0.2693
     22 N9         48.8460   39.4640   50.9860 N.pl3     1 ATP        -0.3222
     23 C8         48.6160   40.8420   50.9450 C.cat     1 ATP         0.1640
     24 N7         49.4250   41.4890   50.1650 N.ar      1 ATP        -0.1640
     25 C5         50.2320   40.4700   49.6640 C.ar      1 ATP         0.0820
     26 C6         51.3080   40.4660   48.7310 C.cat     1 ATP         0.1640
     27 N6         51.7210   41.5680   48.1290 N.pl3     1 ATP        -0.4916
     28 N1         51.9120   39.2740   48.4470 N.pl3     1 ATP        -0.4390
     29 C2         51.4930   38.1510   49.0290 C.ar      1 ATP         0.5691
     30 N3         50.4910   38.0160   49.9000 N.ar      1 ATP        -0.4283
     31 C4         49.8920   39.2530   50.1710 C.ar      1 ATP         0.2226
     32 H5'1       47.6492   40.3457   53.1926 H         1 ATP        -0.0393
     33 H5'2       46.5714   40.2346   54.6253 H         1 ATP        -0.0393
     34 H4'        45.6654   38.3452   53.6190 H         1 ATP        -0.0393
     35 H3'        48.2020   39.8423   54.4542 H         1 ATP        -0.0393
     36 HO3'       47.0751   38.8571   56.1666 H         1 ATP         0.2010
     37 H2'        49.7910   38.3380   53.2466 H         1 ATP        -0.0393
     38 HO2'       49.0003   36.3505   54.3868 H         1 ATP         0.2010
     39 H1'        48.1676   37.5175   51.0776 H         1 ATP        -0.0393
     40 H8         47.8360   41.3900   51.4990 H         1 ATP         0.0000
     41 HN61       51.2389   42.5309   48.3533 H         1 ATP         0.2048
     42 HN62       52.5468   41.5221   47.4038 H         1 ATP         0.2048
     43 H2         52.0360   37.2290   48.7590 H         1 ATP        -0.1292
     44 H44        52.7492   39.2376   47.7344 H         1 ATP         0.2048
@<TRIPOS>BOND
     1    1    2 2
     2    1    3 1
     3    1    4 1
     4    1    8 1
     5    5    6 2
     6    5    7 1
     7    5    8 1
     8    5   12 1
     9    9   10 2
    10    9   11 1
    11    9   12 1
    12    9   13 1
    13   13   14 1
    14   14   15 1
    15   14   32 1
    16   14   33 1
    17   15   16 1
    18   15   17 1
    19   15   34 1
    20   16   21 1
    21   17   18 1
    22   17   19 1
    23   17   35 1
    24   18   36 1
    25   19   20 1
    26   19   21 1
    27   19   37 1
    28   20   38 1
    29   21   22 1
    30   21   39 1
    31   22   23 ar
    32   22   31 ar
    33   23   24 ar
    34   23   40 1
    35   24   25 ar
    36   25   26 ar
    37   25   31 ar
    38   26   27 1
    39   26   28 ar
    40   27   41 1
    41   27   42 1
    42   28   29 ar
    43   28   44 1
    44   29   30 ar
    45   29   43 1
    46   30   31 ar
@<TRIPOS>SUBSTRUCTURE
     1 ATP         1 GROUP   0 A     ****
@<TRIPOS>MOLECULE
[[5-(6-amino-7,8-dihydropurin-8-ylium-9-yl)-3,4-dihydroxy-tetrahydrofuran-2-yl]methoxy-hydroxy-phosphoryl] phosphono phosphate
   47    49     1     0     0
SMALL
USER_CHARGES

@<TRIPOS>ATOM
      1 PG         46.1070   45.1820   56.9500 P.3       1 ATP         1.7526
      2 O1G        45.7790   46.3300   56.0520 O.2       1 ATP        -0.8534
      3 O2G        47.3820   44.4970   56.6260 O.3       1 ATP        -0.7661
      4 O3G        45.9720   45.5300   58.3750 O.3       1 ATP        -0.7661
      5 PB         43.9110   43.7400   55.6550 P.3       1 ATP         1.6631
      6 O1B        42.9750   42.7220   55.9860 O.2       1 ATP        -0.8211
      7 O2B        43.6030   44.7670   54.6780 O.3       1 ATP        -0.8211
      8 O3B        45.0410   44.0150   56.7380 O.3       1 ATP        -0.7954
      9 PA         45.2280   42.6690   53.2570 P.3       1 ATP         1.7782
     10 O1A        46.3800   43.3960   52.7880 O.2       1 ATP        -0.8134
     11 O2A        44.1830   42.1900   52.3510 O.3       1 ATP        -0.8257
     12 O3A        44.9170   42.7160   54.7890 O.3       1 ATP        -0.8063
     13 O5'        46.1720   41.5680   53.3020 O.3       1 ATP        -0.5763
     14 C5'        46.6090   40.4220   53.5420 C.3       1 ATP         0.1790
     15 C4'        46.5200   38.9890   53.3640 C.3       1 ATP         0.1339
     16 O4'        46.7850   38.9080   51.9480 O.3       1 ATP        -0.4040
     17 C3'        47.8080   38.8740   54.1120 C.3       1 ATP         0.0906
     18 O3'        47.7130   38.3570   55.4230 O.3       1 ATP        -0.5689
     19 C2'        48.7190   38.1160   53.1390 C.3       1 ATP         0.0660
     20 O2'        48.6320   36.7370   53.4250 O.3       1 ATP        -0.5800
     21 C1'        48.1330   38.4090   51.7210 C.3       1 ATP         0.4216
     22 N9         48.8460   39.4640   50.9860 N.pl3     1 ATP        -0.5455
     23 C8         48.6160   40.8420   50.9450 C.cat     1 ATP         0.2820
     24 N7         49.4250   41.4890   50.1650 N.pl3     1 ATP        -0.4970
     25 C5         50.2320   40.4700   49.6640 C.ar      1 ATP        -0.2773
     26 C6         51.3080   40.4660   48.7310 C.ar      1 ATP         0.7637
     27 N6         51.7210   41.5680   48.1290 N.pl3     1 ATP        -0.9374
     28 N1         51.9120   39.2740   48.4470 N.ar      1 ATP        -0.7408
     29 C2         51.4930   38.1510   49.0290 C.ar      1 ATP         0.7215
     30 N3         50.4910   38.0160   49.9000 N.ar      1 ATP        -0.6797
     31 C4         49.8920   39.2530   50.1710 C.ar      1 ATP         0.6429
     32 HOG2       48.3320   45.0490   56.6795 H         1 ATP         0.4781
     33 HOG3       46.5992   46.3224   58.8095 H         1 ATP         0.4781
     34 HOA2       43.3173   42.8293   52.1230 H         1 ATP         0.4931
     35 H5'1       47.6492   40.3457   53.1926 H         1 ATP         0.0438
     36 H5'2       46.5714   40.2346   54.6253 H         1 ATP         0.0438
     37 H4'        45.6654   38.3452   53.6190 H         1 ATP         0.1278
     38 H3'        48.2020   39.8423   54.4542 H         1 ATP         0.1161
     39 HO3'       47.0751   38.8571   56.1666 H         1 ATP         0.4111
     40 H2'        49.7910   38.3380   53.2466 H         1 ATP         0.0477
     41 HO2'       49.0003   36.3505   54.3868 H         1 ATP         0.4259
     42 H1'        48.1676   37.5175   51.0776 H         1 ATP         0.1524
     43 H8         47.8360   41.3900   51.4990 H         1 ATP         0.2610
     44 HN61       51.2389   42.5309   48.3533 H         1 ATP         0.4534
     45 HN62       52.5468   41.5221   47.4038 H         1 ATP         0.4534
     46 H2         52.0360   37.2290   48.7590 H         1 ATP         0.0900
     47 H47        49.3328   42.5801   50.0600 H         1 ATP         0.5046
@<TRIPOS>BOND
     1    1    2 2
     2    1    3 1
     3    1    4 1
     4    1    8 1
     5    3   32 1
     6    4   33 1
     7    5    6 2
     8    5    7 1
     9    5    8 1
    10    5   12 1
    11    9   10 2
    12    9   11 1
    13    9   12 1
    14    9   13 1
    15   11   34 1
    16   13   14 1
    17   14   15 1
    18   14   35 1
    19   14   36 1
    20   15   16 1
    21   15   17 1
    22   15   37 1
    23   16   21 1
    24   17   18 1
    25   17   19 1
    26   17   38 1
    27   18   39 1
    28   19   20 1
    29   19   21 1
    30   19   40 1
    31   20   41 1
    32   21   22 1
    33   21   42 1
    34   22   23 ar
    35   22   31 ar
    36   23   24 ar
    37   23   43 1
    38   24   25 ar
    39   24   47 1
    40   25   26 ar
    41   25   31 ar
    42   26   27 1
    43   26   28 ar
    44   27   44 1
    45   27   45 1
    46   28   29 ar
    47   29   30 ar
    48   29   46 1
    49   30   31 ar
@<TRIPOS>SUBSTRUCTURE
     1 ATP         1 GROUP   0 A     ****
@<TRIPOS>MOLECULE
[[[5-(6-aminopurin-9-yl)-3,4-dihydroxy-tetrahydrofuran-2-yl]methoxy-hydroxy-phosphoryl]oxy-oxido-phosphoryl] phosphate
   44    46     1     0     0
SMALL
USER_CHARGES

@<TRIPOS>ATOM
      1 PG         46.1070   45.1820   56.9500 P.3       1 ATP         1.4221
      2 O1G        45.7790   46.3300   56.0520 O.2       1 ATP        -0.9341
      3 O2G        47.3820   44.4970   56.6260 O.3       1 ATP        -0.9341
      4 O3G        45.9720   45.5300   58.3750 O.3       1 ATP        -0.9341
      5 PB         43.9110   43.7400   55.6550 P.3       1 ATP         1.6363
      6 O1B        42.9750   42.7220   55.9860 O.2       1 ATP        -0.9021
      7 O2B        43.6030   44.7670   54.6780 O.3       1 ATP        -0.9021
      8 O3B        45.0410   44.0150   56.7380 O.3       1 ATP        -0.7799
      9 PA         45.2280   42.6690   53.2570 P.3       1 ATP         1.7141
     10 O1A        46.3800   43.3960   52.7880 O.2       1 ATP        -0.8703
     11 O2A        44.1830   42.1900   52.3510 O.3       1 ATP        -0.8196
     12 O3A        44.9170   42.7160   54.7890 O.3       1 ATP        -0.7658
     13 O5'        46.1720   41.5680   53.3020 O.3       1 ATP        -0.5841
     14 C5'        46.6090   40.4220   53.5420 C.3       1 ATP         0.1451
     15 C4'        46.5200   38.9890   53.3640 C.3       1 ATP         0.0896
     16 O4'        46.7850   38.9080   51.9480 O.3       1 ATP        -0.3980
     17 C3'        47.8080   38.8740   54.1120 C.3       1 ATP         0.0854
     18 O3'        47.7130   38.3570   55.4230 O.3       1 ATP        -0.5883
     19 C2'        48.7190   38.1160   53.1390 C.3       1 ATP         0.0574
     20 O2'        48.6320   36.7370   53.4250 O.3       1 ATP        -0.6005
     21 C1'        48.1330   38.4090   51.7210 C.3       1 ATP         0.4284
     22 N9         48.8460   39.4640   50.9860 N.pl3     1 ATP        -0.6877
     23 C8         48.6160   40.8420   50.9450 C.ar      1 ATP         0.5830
     24 N7         49.4250   41.4890   50.1650 N.ar      1 ATP        -0.5778
     25 C5         50.2320   40.4700   49.6640 C.ar      1 ATP        -0.1986
     26 C6         51.3080   40.4660   48.7310 C.ar      1 ATP         0.7073
     27 N6         51.7210   41.5680   48.1290 N.pl3     1 ATP        -0.9340
     28 N1         51.9120   39.2740   48.4470 N.ar      1 ATP        -0.8111
     29 C2         51.4930   38.1510   49.0290 C.ar      1 ATP         0.6446
     30 N3         50.4910   38.0160   49.9000 N.ar      1 ATP        -0.7095
     31 C4         49.8920   39.2530   50.1710 C.ar      1 ATP         0.5640
     32 HOA2       43.3173   42.8293   52.1230 H         1 ATP         0.4759
     33 H5'1       47.6492   40.3457   53.1926 H         1 ATP         0.0806
     34 H5'2       46.5714   40.2346   54.6253 H         1 ATP         0.0806
     35 H4'        45.6654   38.3452   53.6190 H         1 ATP         0.1213
     36 H3'        48.2020   39.8423   54.4542 H         1 ATP         0.1208
     37 HO3'       47.0751   38.8571   56.1666 H         1 ATP         0.3965
     38 H2'        49.7910   38.3380   53.2466 H         1 ATP         0.0768
     39 HO2'       49.0003   36.3505   54.3868 H         1 ATP         0.4074
     40 H1'        48.1676   37.5175   51.0776 H         1 ATP         0.0935
     41 H8         47.8360   41.3900   51.4990 H         1 ATP         0.1424
     42 HN61       51.2389   42.5309   48.3533 H         1 ATP         0.4144
     43 HN62       52.5468   41.5221   47.4038 H         1 ATP         0.4144
     44 H2         52.0360   37.2290   48.7590 H         1 ATP         0.0297
@<TRIPOS>BOND
     1    1    2 2
     2    1    3 1
     3    1    4 1
     4    1    8 1
     5    5    6 2
     6    5    7 1
     7    5    8 1
     8    5   12 1
     9    9   10 2
    10    9   11 1
    11    9   12 1
    12    9   13 1
    13   11   32 1
    14   13   14 1
    15   14   15 1
    16   14   33 1
    17   14   34 1
    18   15   16 1
    19   15   17 1
    20   15   35 1
    21   16   21 1
    22   17   18 1
    23   17   19 1
    24   17   36 1
    25   18   37 1
    26   19   20 1
    27   19   21 1
    28   19   38 1
    29   20   39 1
    30   21   22 1
    31   21   40 1
    32   22   23 ar
    33   22   31 ar
    34   23   24 ar
    35   23   41 1
    36   24   25 ar
    37   25   26 ar
    38   25   31 ar
    39   26   27 1
    40   26   28 ar
    41   27   42 1
    42   27   43 1
    43   28   29 ar
    44   29   30 ar
    45   29   44 1
    46   30   31 ar
@<TRIPOS>SUBSTRUCTURE
     1 ATP         1 GROUP   0 A     ****
@<TRIPOS>MOLECULE
[[[3,4-dihydroxy-5-(6-imino-7,8-dihydro-1~{H}-purin-8-ylium-9-yl)tetrahydrofuran-2-yl]methoxy-oxido-phosphoryl]oxy-oxido-phosphoryl] hydrogen phosphate
   45    47     1     0     0
SMALL
USER_CHARGES

@<TRIPOS>ATOM
      1 PG         46.1070   45.1820   56.9500 P.3       1 ATP         1.5631
      2 O1G        45.7790   46.3300   56.0520 O.2       1 ATP        -0.8806
      3 O2G        47.3820   44.4970   56.6260 O.3       1 ATP        -0.8806
      4 O3G        45.9720   45.5300   58.3750 O.3       1 ATP        -0.8165
      5 PB         43.9110   43.7400   55.6550 P.3       1 ATP         1.6877
      6 O1B        42.9750   42.7220   55.9860 O.2       1 ATP        -0.8727
      7 O2B        43.6030   44.7670   54.6780 O.3       1 ATP        -0.8727
      8 O3B        45.0410   44.0150   56.7380 O.3       1 ATP        -0.8330
      9 PA         45.2280   42.6690   53.2570 P.3       1 ATP         1.6036
     10 O1A        46.3800   43.3960   52.7880 O.2       1 ATP        -0.9062
     11 O2A        44.1830   42.1900   52.3510 O.3       1 ATP        -0.9062
     12 O3A        44.9170   42.7160   54.7890 O.3       1 ATP        -0.8166
     13 O5'        46.1720   41.5680   53.3020 O.3       1 ATP        -0.5510
     14 C5'        46.6090   40.4220   53.5420 C.3       1 ATP         0.2099
     15 C4'        46.5200   38.9890   53.3640 C.3       1 ATP         0.0598
     16 O4'        46.7850   38.9080   51.9480 O.3       1 ATP        -0.3455
     17 C3'        47.8080   38.8740   54.1120 C.3       1 ATP         0.0742
     18 O3'        47.7130   38.3570   55.4230 O.3       1 ATP        -0.6025
     19 C2'        48.7190   38.1160   53.1390 C.3       1 ATP         0.1145
     20 O2'        48.6320   36.7370   53.4250 O.3       1 ATP        -0.5835
     21 C1'        48.1330   38.4090   51.7210 C.3       1 ATP         0.3776
     22 N9         48.8460   39.4640   50.9860 N.pl3     1 ATP        -0.4429
     23 C8         48.6160   40.8420   50.9450 C.cat     1 ATP         0.2964
     24 N7         49.4250   41.4890   50.1650 N.pl3     1 ATP        -0.4957
     25 C5         50.2320   40.4700   49.6640 C.ar      1 ATP        -0.1346
     26 C6         51.3080   40.4660   48.7310 C.ar      1 ATP         0.7213
     27 N6         51.7210   41.5680   48.1290 N.2       1 ATP        -0.8215
     28 N1         51.9120   39.2740   48.4470 N.pl3     1 ATP        -0.8455
     29 C2         51.4930   38.1510   49.0290 C.ar      1 ATP         0.6477
     30 N3         50.4910   38.0160   49.9000 N.ar      1 ATP        -0.5707
     31 C4         49.8920   39.2530   50.1710 C.ar      1 ATP         0.2637
     32 HOG3       46.5992   46.3224   58.8095 H         1 ATP         0.4378
     33 H5'1       47.6492   40.3457   53.1926 H         1 ATP         0.0340
     34 H5'2       46.5714   40.2346   54.6253 H         1 ATP         0.0340
     35 H4'        45.6654   38.3452   53.6190 H         1 ATP         0.0910
     36 H3'        48.2020   39.8423   54.4542 H         1 ATP         0.0656
     37 HO3'       47.0751   38.8571   56.1666 H         1 ATP         0.4386
     38 H2'        49.7910   38.3380   53.2466 H         1 ATP         0.0788
     39 HO2'       49.0003   36.3505   54.3868 H         1 ATP         0.4363
     40 H1'        48.1676   37.5175   51.0776 H         1 ATP         0.1225
     41 H8         47.8360   41.3900   51.4990 H         1 ATP         0.3824
     42 HN62       51.9400   42.2520   48.8520 H         1 ATP         0.4018
     43 H2         52.0360   37.2290   48.7590 H         1 ATP         0.0652
     44 H44        52.7492   39.2376   47.7344 H         1 ATP         0.4503
     45 H45        49.3328   42.5801   50.0600 H         1 ATP         0.5209
@<TRIPOS>BOND
     1    1    2 2
     2    1    3 1
     3    1    4 1
     4    1    8 1
     5    4   32 1
     6    5    6 2
     7    5    7 1
     8    5    8 1
     9    5   12 1
    10    9   10 2
    11    9   11 1
    12    9   12 1
    13    9   13 1
    14   13   14 1
    15   14   15 1
    16   14   33 1
    17   14   34 1
    18   15   16 1
    19   15   17 1
    20   15   35 1
    21   16   21 1
    22   17   18 1
    23   17   19 1
    24   17   36 1
    25   18   37 1
    26   19   20 1
    27   19   21 1
    28   19   38 1
    29   20   39 1
    30   21   22 1
    31   21   40 1
    32   22   23 ar
    33   22   31 ar
    34   23   24 ar
    35   23   41 1
    36   24   25 ar
    37   24   45 1
    38   25   26 ar
    39   25   31 ar
    40   26   27 2
    41   26   28 ar
    42   27   42 1
    43   28   29 ar
    44   28   44 1
    45   29   30 ar
    46   29   43 1
    47   30   31 ar
@<TRIPOS>SUBSTRUCTURE
     1 ATP         1 GROUP   0 A     ****
@<TRIPOS>MOLECULE
[[[3,4-dihydroxy-5-(6-imino-7,8-dihydro-1~{H}-purin-8-ylium-9-yl)tetrahydrofuran-2-yl]methoxy-oxido-phosphoryl]oxy-oxido-phosphoryl] hydrogen phosphate
   45    47     1     0     0
SMALL
USER_CHARGES

@<TRIPOS>ATOM
      1 PG         46.1070   45.1820   56.9500 P.3       1 ATP         1.5631
      2 O1G        45.7790   46.3300   56.0520 O.2       1 ATP        -0.8806
      3 O2G        47.3820   44.4970   56.6260 O.3       1 ATP        -0.8806
      4 O3G        45.9720   45.5300   58.3750 O.3       1 ATP        -0.8165
      5 PB         43.9110   43.7400   55.6550 P.3       1 ATP         1.6877
      6 O1B        42.9750   42.7220   55.9860 O.2       1 ATP        -0.8727
      7 O2B        43.6030   44.7670   54.6780 O.3       1 ATP        -0.8727
      8 O3B        45.0410   44.0150   56.7380 O.3       1 ATP        -0.8330
      9 PA         45.2280   42.6690   53.2570 P.3       1 ATP         1.6036
     10 O1A        46.3800   43.3960   52.7880 O.2       1 ATP        -0.9062
     11 O2A        44.1830   42.1900   52.3510 O.3       1 ATP        -0.9062
     12 O3A        44.9170   42.7160   54.7890 O.3       1 ATP        -0.8166
     13 O5'        46.1720   41.5680   53.3020 O.3       1 ATP        -0.5510
     14 C5'        46.6090   40.4220   53.5420 C.3       1 ATP         0.2099
     15 C4'        46.5200   38.9890   53.3640 C.3       1 ATP         0.0598
     16 O4'        46.7850   38.9080   51.9480 O.3       1 ATP        -0.3455
     17 C3'        47.8080   38.8740   54.1120 C.3       1 ATP         0.0742
     18 O3'        47.7130   38.3570   55.4230 O.3       1 ATP        -0.6025
     19 C2'        48.7190   38.1160   53.1390 C.3       1 ATP         0.1145
     20 O2'        48.6320   36.7370   53.4250 O.3       1 ATP        -0.5835
     21 C1'        48.1330   38.4090   51.7210 C.3       1 ATP         0.3776
     22 N9         48.8460   39.4640   50.9860 N.pl3     1 ATP        -0.4429
     23 C8         48.6160   40.8420   50.9450 C.cat     1 ATP         0.2964
     24 N7         49.4250   41.4890   50.1650 N.pl3     1 ATP        -0.4957
     25 C5         50.2320   40.4700   49.6640 C.ar      1 ATP        -0.1346
     26 C6         51.3080   40.4660   48.7310 C.ar      1 ATP         0.7213
     27 N6         51.7210   41.5680   48.1290 N.2       1 ATP        -0.8215
     28 N1         51.9120   39.2740   48.4470 N.pl3     1 ATP        -0.8455
     29 C2         51.4930   38.1510   49.0290 C.ar      1 ATP         0.6477
     30 N3         50.4910   38.0160   49.9000 N.ar      1 ATP        -0.5707
     31 C4         49.8920   39.2530   50.1710 C.ar      1 ATP         0.2637
     32 HOG3       46.5992   46.3224   58.8095 H         1 ATP         0.4378
     33 H5'1       47.6492   40.3457   53.1926 H         1 ATP         0.0340
     34 H5'2       46.5714   40.2346   54.6253 H         1 ATP         0.0340
     35 H4'        45.6654   38.3452   53.6190 H         1 ATP         0.0910
     36 H3'        48.2020   39.8423   54.4542 H         1 ATP         0.0656
     37 HO3'       47.0751   38.8571   56.1666 H         1 ATP         0.4386
     38 H2'        49.7910   38.3380   53.2466 H         1 ATP         0.0788
     39 HO2'       49.0003   36.3505   54.3868 H         1 ATP         0.4363
     40 H1'        48.1676   37.5175   51.0776 H         1 ATP         0.1225
     41 H8         47.8360   41.3900   51.4990 H         1 ATP         0.3824
     42 HN61       52.4910   41.5650   47.4600 H         1 ATP         0.4018
     43 H2         52.0360   37.2290   48.7590 H         1 ATP         0.0652
     44 H44        52.7492   39.2376   47.7344 H         1 ATP         0.4503
     45 H45        49.3328   42.5801   50.0600 H         1 ATP         0.5209
@<TRIPOS>BOND
     1    1    2 2
     2    1    3 1
     3    1    4 1
     4    1    8 1
     5    4   32 1
     6    5    6 2
     7    5    7 1
     8    5    8 1
     9    5   12 1
    10    9   10 2
    11    9   11 1
    12    9   12 1
    13    9   13 1
    14   13   14 1
    15   14   15 1
    16   14   33 1
    17   14   34 1
    18   15   16 1
    19   15   17 1
    20   15   35 1
    21   16   21 1
    22   17   18 1
    23   17   19 1
    24   17   36 1
    25   18   37 1
    26   19   20 1
    27   19   21 1
    28   19   38 1
    29   20   39 1
    30   21   22 1
    31   21   40 1
    32   22   23 ar
    33   22   31 ar
    34   23   24 ar
    35   23   41 1
    36   24   25 ar
    37   24   45 1
    38   25   26 ar
    39   25   31 ar
    40   26   27 2
    41   26   28 ar
    42   27   42 1
    43   28   29 ar
    44   28   44 1
    45   29   30 ar
    46   29   43 1
    47   30   31 ar
@<TRIPOS>SUBSTRUCTURE
     1 ATP         1 GROUP   0 A     ****
@<TRIPOS>MOLECULE
[[5-(6-aminopurin-9-yl)-3,4-dihydroxy-tetrahydrofuran-2-yl]methoxy-hydroxy-phosphoryl] phosphono hydrogen phosphate
   47    49     1     0     0
SMALL
USER_CHARGES

@<TRIPOS>ATOM
      1 PG         46.1070   45.1820   56.9500 P.3       1 ATP         1.8096
      2 O1G        45.7790   46.3300   56.0520 O.2       1 ATP        -0.7943
      3 O2G        47.3820   44.4970   56.6260 O.3       1 ATP        -0.7926
      4 O3G        45.9720   45.5300   58.3750 O.3       1 ATP        -0.7926
      5 PB         43.9110   43.7400   55.6550 P.3       1 ATP         1.9396
      6 O1B        42.9750   42.7220   55.9860 O.2       1 ATP        -0.8346
      7 O2B        43.6030   44.7670   54.6780 O.3       1 ATP        -0.8243
      8 O3B        45.0410   44.0150   56.7380 O.3       1 ATP        -0.8110
      9 PA         45.2280   42.6690   53.2570 P.3       1 ATP         1.8043
     10 O1A        46.3800   43.3960   52.7880 O.2       1 ATP        -0.8218
     11 O2A        44.1830   42.1900   52.3510 O.3       1 ATP        -0.8115
     12 O3A        44.9170   42.7160   54.7890 O.3       1 ATP        -0.8294
     13 O5'        46.1720   41.5680   53.3020 O.3       1 ATP        -0.5751
     14 C5'        46.6090   40.4220   53.5420 C.3       1 ATP         0.1702
     15 C4'        46.5200   38.9890   53.3640 C.3       1 ATP         0.1167
     16 O4'        46.7850   38.9080   51.9480 O.3       1 ATP        -0.4221
     17 C3'        47.8080   38.8740   54.1120 C.3       1 ATP         0.1072
     18 O3'        47.7130   38.3570   55.4230 O.3       1 ATP        -0.5896
     19 C2'        48.7190   38.1160   53.1390 C.3       1 ATP         0.0668
     20 O2'        48.6320   36.7370   53.4250 O.3       1 ATP        -0.5764
     21 C1'        48.1330   38.4090   51.7210 C.3       1 ATP         0.4327
     22 N9         48.8460   39.4640   50.9860 N.pl3     1 ATP        -0.7057
     23 C8         48.6160   40.8420   50.9450 C.ar      1 ATP         0.5352
     24 N7         49.4250   41.4890   50.1650 N.ar      1 ATP        -0.5411
     25 C5         50.2320   40.4700   49.6640 C.ar      1 ATP        -0.2315
     26 C6         51.3080   40.4660   48.7310 C.ar      1 ATP         0.7606
     27 N6         51.7210   41.5680   48.1290 N.pl3     1 ATP        -0.9553
     28 N1         51.9120   39.2740   48.4470 N.ar      1 ATP        -0.7923
     29 C2         51.4930   38.1510   49.0290 C.ar      1 ATP         0.6867
     30 N3         50.4910   38.0160   49.9000 N.ar      1 ATP        -0.7305
     31 C4         49.8920   39.2530   50.1710 C.ar      1 ATP         0.5923
     32 HOG2       48.3320   45.0490   56.6795 H         1 ATP         0.5059
     33 HOG3       46.5992   46.3224   58.8095 H         1 ATP         0.5059
     34 HOB2       42.9452   45.6055   54.9502 H         1 ATP         0.5086
     35 HOA2       43.3173   42.8293   52.1230 H         1 ATP         0.5057
     36 H5'1       47.6492   40.3457   53.1926 H         1 ATP         0.0623
     37 H5'2       46.5714   40.2346   54.6253 H         1 ATP         0.0623
     38 H4'        45.6654   38.3452   53.6190 H         1 ATP         0.1115
     39 H3'        48.2020   39.8423   54.4542 H         1 ATP         0.0700
     40 HO3'       47.0751   38.8571   56.1666 H         1 ATP         0.4307
     41 H2'        49.7910   38.3380   53.2466 H         1 ATP         0.0742
     42 HO2'       49.0003   36.3505   54.3868 H         1 ATP         0.4245
     43 H1'        48.1676   37.5175   51.0776 H         1 ATP         0.1193
     44 H8         47.8360   41.3900   51.4990 H         1 ATP         0.0779
     45 HN61       51.2389   42.5309   48.3533 H         1 ATP         0.4486
     46 HN62       52.5468   41.5221   47.4038 H         1 ATP         0.4486
     47 H2         52.0360   37.2290   48.7590 H         1 ATP         0.0538
@<TRIPOS>BOND
     1    1    2 2
     2    1    3 1
     3    1    4 1
     4    1    8 1
     5    3   32 1
     6    4   33 1
     7    5    6 2
     8    5    7 1
     9    5    8 1
    10    5   12 1
    11    7   34 1
    12    9   10 2
    13    9   11 1
    14    9   12 1
    15    9   13 1
    16   11   35 1
    17   13   14 1
    18   14   15 1
    19   14   36 1
    20   14   37 1
    21   15   16 1
    22   15   17 1
    23   15   38 1
    24   16   21 1
    25   17   18 1
    26   17   19 1
    27   17   39 1
    28   18   40 1
    29   19   20 1
    30   19   21 1
    31   19   41 1
    32   20   42 1
    33   21   22 1
    34   21   43 1
    35   22   23 ar
    36   22   31 ar
    37   23   24 ar
    38   23   44 1
    39   24   25 ar
    40   25   26 ar
    41   25   31 ar
    42   26   27 1
    43   26   28 ar
    44   27   45 1
    45   27   46 1
    46   28   29 ar
    47   29   30 ar
    48   29   47 1
    49   30   31 ar
@<TRIPOS>SUBSTRUCTURE
     1 ATP         1 GROUP   0 A     ****
@<TRIPOS>MOLECULE
[[[3,4-dihydroxy-5-(6-imino-1~{H}-purin-9-yl)tetrahydrofuran-2-yl]methoxy-oxido-phosphoryl]oxy-oxido-phosphoryl] hydrogen phosphate
   44    46     1     0     0
SMALL
USER_CHARGES

@<TRIPOS>ATOM
      1 PG         46.1070   45.1820   56.9500 P.3       1 ATP         1.5257
      2 O1G        45.7790   46.3300   56.0520 O.2       1 ATP        -0.8737
      3 O2G        47.3820   44.4970   56.6260 O.3       1 ATP        -0.8737
      4 O3G        45.9720   45.5300   58.3750 O.3       1 ATP        -0.7971
      5 PB         43.9110   43.7400   55.6550 P.3       1 ATP         1.6824
      6 O1B        42.9750   42.7220   55.9860 O.2       1 ATP        -0.8925
      7 O2B        43.6030   44.7670   54.6780 O.3       1 ATP        -0.8925
      8 O3B        45.0410   44.0150   56.7380 O.3       1 ATP        -0.8047
      9 PA         45.2280   42.6690   53.2570 P.3       1 ATP         1.5908
     10 O1A        46.3800   43.3960   52.7880 O.2       1 ATP        -0.8932
     11 O2A        44.1830   42.1900   52.3510 O.3       1 ATP        -0.8932
     12 O3A        44.9170   42.7160   54.7890 O.3       1 ATP        -0.8088
     13 O5'        46.1720   41.5680   53.3020 O.3       1 ATP        -0.5646
     14 C5'        46.6090   40.4220   53.5420 C.3       1 ATP         0.2204
     15 C4'        46.5200   38.9890   53.3640 C.3       1 ATP         0.0965
     16 O4'        46.7850   38.9080   51.9480 O.3       1 ATP        -0.3907
     17 C3'        47.8080   38.8740   54.1120 C.3       1 ATP         0.0763
     18 O3'        47.7130   38.3570   55.4230 O.3       1 ATP        -0.5884
     19 C2'        48.7190   38.1160   53.1390 C.3       1 ATP         0.0784
     20 O2'        48.6320   36.7370   53.4250 O.3       1 ATP        -0.6085
     21 C1'        48.1330   38.4090   51.7210 C.3       1 ATP         0.2186
     22 N9         48.8460   39.4640   50.9860 N.pl3     1 ATP        -0.1699
     23 C8         48.6160   40.8420   50.9450 C.ar      1 ATP         0.4438
     24 N7         49.4250   41.4890   50.1650 N.ar      1 ATP        -0.6280
     25 C5         50.2320   40.4700   49.6640 C.ar      1 ATP         0.2109
     26 C6         51.3080   40.4660   48.7310 C.ar      1 ATP         0.6180
     27 N6         51.7210   41.5680   48.1290 N.2       1 ATP        -0.8319
     28 N1         51.9120   39.2740   48.4470 N.pl3     1 ATP        -0.8664
     29 C2         51.4930   38.1510   49.0290 C.ar      1 ATP         0.5952
     30 N3         50.4910   38.0160   49.9000 N.ar      1 ATP        -0.5599
     31 C4         49.8920   39.2530   50.1710 C.ar      1 ATP         0.0076
     32 HOG3       46.5992   46.3224   58.8095 H         1 ATP         0.4101
     33 H5'1       47.6492   40.3457   53.1926 H         1 ATP         0.0364
     34 H5'2       46.5714   40.2346   54.6253 H         1 ATP         0.0364
     35 H4'        45.6654   38.3452   53.6190 H         1 ATP         0.0945
     36 H3'        48.2020   39.8423   54.4542 H         1 ATP         0.0703
     37 HO3'       47.0751   38.8571   56.1666 H         1 ATP         0.4099
     38 H2'        49.7910   38.3380   53.2466 H         1 ATP         0.0676
     39 HO2'       49.0003   36.3505   54.3868 H         1 ATP         0.4291
     40 H1'        48.1676   37.5175   51.0776 H         1 ATP         0.0950
     41 H8         47.8360   41.3900   51.4990 H         1 ATP         0.1135
     42 HN62       51.9400   42.2520   48.8520 H         1 ATP         0.3588
     43 H2         52.0360   37.2290   48.7590 H         1 ATP         0.0302
     44 H44        52.7492   39.2376   47.7344 H         1 ATP         0.4215
@<TRIPOS>BOND
     1    1    2 2
     2    1    3 1
     3    1    4 1
     4    1    8 1
     5    4   32 1
     6    5    6 2
     7    5    7 1
     8    5    8 1
     9    5   12 1
    10    9   10 2
    11    9   11 1
    12    9   12 1
    13    9   13 1
    14   13   14 1
    15   14   15 1
    16   14   33 1
    17   14   34 1
    18   15   16 1
    19   15   17 1
    20   15   35 1
    21   16   21 1
    22   17   18 1
    23   17   19 1
    24   17   36 1
    25   18   37 1
    26   19   20 1
    27   19   21 1
    28   19   38 1
    29   20   39 1
    30   21   22 1
    31   21   40 1
    32   22   23 ar
    33   22   31 ar
    34   23   24 ar
    35   23   41 1
    36   24   25 ar
    37   25   26 ar
    38   25   31 ar
    39   26   27 2
    40   26   28 ar
    41   27   42 1
    42   28   29 ar
    43   28   44 1
    44   29   30 ar
    45   29   43 1
    46   30   31 ar
@<TRIPOS>SUBSTRUCTURE
     1 ATP         1 GROUP   0 A     ****
@<TRIPOS>MOLECULE
[[[3,4-dihydroxy-5-(6-imino-1~{H}-purin-9-yl)tetrahydrofuran-2-yl]methoxy-oxido-phosphoryl]oxy-oxido-phosphoryl] hydrogen phosphate
   44    46     1     0     0
SMALL
USER_CHARGES

@<TRIPOS>ATOM
      1 PG         46.1070   45.1820   56.9500 P.3       1 ATP         1.5257
      2 O1G        45.7790   46.3300   56.0520 O.2       1 ATP        -0.8737
      3 O2G        47.3820   44.4970   56.6260 O.3       1 ATP        -0.8737
      4 O3G        45.9720   45.5300   58.3750 O.3       1 ATP        -0.7971
      5 PB         43.9110   43.7400   55.6550 P.3       1 ATP         1.6824
      6 O1B        42.9750   42.7220   55.9860 O.2       1 ATP        -0.8925
      7 O2B        43.6030   44.7670   54.6780 O.3       1 ATP        -0.8925
      8 O3B        45.0410   44.0150   56.7380 O.3       1 ATP        -0.8047
      9 PA         45.2280   42.6690   53.2570 P.3       1 ATP         1.5908
     10 O1A        46.3800   43.3960   52.7880 O.2       1 ATP        -0.8932
     11 O2A        44.1830   42.1900   52.3510 O.3       1 ATP        -0.8932
     12 O3A        44.9170   42.7160   54.7890 O.3       1 ATP        -0.8088
     13 O5'        46.1720   41.5680   53.3020 O.3       1 ATP        -0.5646
     14 C5'        46.6090   40.4220   53.5420 C.3       1 ATP         0.2204
     15 C4'        46.5200   38.9890   53.3640 C.3       1 ATP         0.0965
     16 O4'        46.7850   38.9080   51.9480 O.3       1 ATP        -0.3907
     17 C3'        47.8080   38.8740   54.1120 C.3       1 ATP         0.0763
     18 O3'        47.7130   38.3570   55.4230 O.3       1 ATP        -0.5884
     19 C2'        48.7190   38.1160   53.1390 C.3       1 ATP         0.0784
     20 O2'        48.6320   36.7370   53.4250 O.3       1 ATP        -0.6085
     21 C1'        48.1330   38.4090   51.7210 C.3       1 ATP         0.2186
     22 N9         48.8460   39.4640   50.9860 N.pl3     1 ATP        -0.1699
     23 C8         48.6160   40.8420   50.9450 C.ar      1 ATP         0.4438
     24 N7         49.4250   41.4890   50.1650 N.ar      1 ATP        -0.6280
     25 C5         50.2320   40.4700   49.6640 C.ar      1 ATP         0.2109
     26 C6         51.3080   40.4660   48.7310 C.ar      1 ATP         0.6180
     27 N6         51.7210   41.5680   48.1290 N.2       1 ATP        -0.8319
     28 N1         51.9120   39.2740   48.4470 N.pl3     1 ATP        -0.8664
     29 C2         51.4930   38.1510   49.0290 C.ar      1 ATP         0.5952
     30 N3         50.4910   38.0160   49.9000 N.ar      1 ATP        -0.5599
     31 C4         49.8920   39.2530   50.1710 C.ar      1 ATP         0.0076
     32 HOG3       46.5992   46.3224   58.8095 H         1 ATP         0.4101
     33 H5'1       47.6492   40.3457   53.1926 H         1 ATP         0.0364
     34 H5'2       46.5714   40.2346   54.6253 H         1 ATP         0.0364
     35 H4'        45.6654   38.3452   53.6190 H         1 ATP         0.0945
     36 H3'        48.2020   39.8423   54.4542 H         1 ATP         0.0703
     37 HO3'       47.0751   38.8571   56.1666 H         1 ATP         0.4099
     38 H2'        49.7910   38.3380   53.2466 H         1 ATP         0.0676
     39 HO2'       49.0003   36.3505   54.3868 H         1 ATP         0.4291
     40 H1'        48.1676   37.5175   51.0776 H         1 ATP         0.0950
     41 H8         47.8360   41.3900   51.4990 H         1 ATP         0.1135
     42 HN61       52.4910   41.5650   47.4600 H         1 ATP         0.3588
     43 H2         52.0360   37.2290   48.7590 H         1 ATP         0.0302
     44 H44        52.7492   39.2376   47.7344 H         1 ATP         0.4215
@<TRIPOS>BOND
     1    1    2 2
     2    1    3 1
     3    1    4 1
     4    1    8 1
     5    4   32 1
     6    5    6 2
     7    5    7 1
     8    5    8 1
     9    5   12 1
    10    9   10 2
    11    9   11 1
    12    9   12 1
    13    9   13 1
    14   13   14 1
    15   14   15 1
    16   14   33 1
    17   14   34 1
    18   15   16 1
    19   15   17 1
    20   15   35 1
    21   16   21 1
    22   17   18 1
    23   17   19 1
    24   17   36 1
    25   18   37 1
    26   19   20 1
    27   19   21 1
    28   19   38 1
    29   20   39 1
    30   21   22 1
    31   21   40 1
    32   22   23 ar
    33   22   31 ar
    34   23   24 ar
    35   23   41 1
    36   24   25 ar
    37   25   26 ar
    38   25   31 ar
    39   26   27 2
    40   26   28 ar
    41   27   42 1
    42   28   29 ar
    43   28   44 1
    44   29   30 ar
    45   29   43 1
    46   30   31 ar
@<TRIPOS>SUBSTRUCTURE
     1 ATP         1 GROUP   0 A     ****
@<TRIPOS>MOLECULE
[[[5-(6-amino-7,8-dihydropurin-8-ylium-9-yl)-3,4-dihydroxy-tetrahydrofuran-2-yl]methoxy-hydroxy-phosphoryl]oxy-hydroxy-phosphoryl] hydrogen phosphate
   47    49     1     0     0
SMALL
USER_CHARGES

@<TRIPOS>ATOM
      1 PG         46.1070   45.1820   56.9500 P.3       1 ATP         1.5449
      2 O1G        45.7790   46.3300   56.0520 O.2       1 ATP        -0.8177
      3 O2G        47.3820   44.4970   56.6260 O.3       1 ATP        -0.8177
      4 O3G        45.9720   45.5300   58.3750 O.3       1 ATP        -0.7779
      5 PB         43.9110   43.7400   55.6550 P.3       1 ATP         1.9141
      6 O1B        42.9750   42.7220   55.9860 O.2       1 ATP        -0.8754
      7 O2B        43.6030   44.7670   54.6780 O.3       1 ATP        -0.8083
      8 O3B        45.0410   44.0150   56.7380 O.3       1 ATP        -0.8025
      9 PA         45.2280   42.6690   53.2570 P.3       1 ATP         1.8015
     10 O1A        46.3800   43.3960   52.7880 O.2       1 ATP        -0.8201
     11 O2A        44.1830   42.1900   52.3510 O.3       1 ATP        -0.8103
     12 O3A        44.9170   42.7160   54.7890 O.3       1 ATP        -0.8038
     13 O5'        46.1720   41.5680   53.3020 O.3       1 ATP        -0.5730
     14 C5'        46.6090   40.4220   53.5420 C.3       1 ATP         0.1929
     15 C4'        46.5200   38.9890   53.3640 C.3       1 ATP         0.1044
     16 O4'        46.7850   38.9080   51.9480 O.3       1 ATP        -0.4079
     17 C3'        47.8080   38.8740   54.1120 C.3       1 ATP         0.1439
     18 O3'        47.7130   38.3570   55.4230 O.3       1 ATP        -0.5593
     19 C2'        48.7190   38.1160   53.1390 C.3       1 ATP         0.0644
     20 O2'        48.6320   36.7370   53.4250 O.3       1 ATP        -0.5595
     21 C1'        48.1330   38.4090   51.7210 C.3       1 ATP         0.3792
     22 N9         48.8460   39.4640   50.9860 N.pl3     1 ATP        -0.5557
     23 C8         48.6160   40.8420   50.9450 C.cat     1 ATP         0.2849
     24 N7         49.4250   41.4890   50.1650 N.pl3     1 ATP        -0.5117
     25 C5         50.2320   40.4700   49.6640 C.ar      1 ATP        -0.2787
     26 C6         51.3080   40.4660   48.7310 C.ar      1 ATP         0.7736
     27 N6         51.7210   41.5680   48.1290 N.pl3     1 ATP        -0.9480
     28 N1         51.9120   39.2740   48.4470 N.ar      1 ATP        -0.7442
     29 C2         51.4930   38.1510   49.0290 C.ar      1 ATP         0.7202
     30 N3         50.4910   38.0160   49.9000 N.ar      1 ATP        -0.6957
     31 C4         49.8920   39.2530   50.1710 C.ar      1 ATP         0.6231
     32 HOG3       46.5992   46.3224   58.8095 H         1 ATP         0.4452
     33 HOB2       42.9452   45.6055   54.9502 H         1 ATP         0.4969
     34 HOA2       43.3173   42.8293   52.1230 H         1 ATP         0.4779
     35 H5'1       47.6492   40.3457   53.1926 H         1 ATP         0.0280
     36 H5'2       46.5714   40.2346   54.6253 H         1 ATP         0.0280
     37 H4'        45.6654   38.3452   53.6190 H         1 ATP         0.2049
     38 H3'        48.2020   39.8423   54.4542 H         1 ATP         0.1077
     39 HO3'       47.0751   38.8571   56.1666 H         1 ATP         0.4255
     40 H2'        49.7910   38.3380   53.2466 H         1 ATP         0.0584
     41 HO2'       49.0003   36.3505   54.3868 H         1 ATP         0.4149
     42 H1'        48.1676   37.5175   51.0776 H         1 ATP         0.1459
     43 H8         47.8360   41.3900   51.4990 H         1 ATP         0.2739
     44 HN61       51.2389   42.5309   48.3533 H         1 ATP         0.4605
     45 HN62       52.5468   41.5221   47.4038 H         1 ATP         0.4605
     46 H2         52.0360   37.2290   48.7590 H         1 ATP         0.0904
     47 H47        49.3328   42.5801   50.0600 H         1 ATP         0.5017
@<TRIPOS>BOND
     1    1    2 2
     2    1    3 1
     3    1    4 1
     4    1    8 1
     5    4   32 1
     6    5    6 2
     7    5    7 1
     8    5    8 1
     9    5   12 1
    10    7   33 1
    11    9   10 2
    12    9   11 1
    13    9   12 1
    14    9   13 1
    15   11   34 1
    16   13   14 1
    17   14   15 1
    18   14   35 1
    19   14   36 1
    20   15   16 1
    21   15   17 1
    22   15   37 1
    23   16   21 1
    24   17   18 1
    25   17   19 1
    26   17   38 1
    27   18   39 1
    28   19   20 1
    29   19   21 1
    30   19   40 1
    31   20   41 1
    32   21   22 1
    33   21   42 1
    34   22   23 ar
    35   22   31 ar
    36   23   24 ar
    37   23   43 1
    38   24   25 ar
    39   24   47 1
    40   25   26 ar
    41   25   31 ar
    42   26   27 1
    43   26   28 ar
    44   27   44 1
    45   27   45 1
    46   28   29 ar
    47   29   30 ar
    48   29   46 1
    49   30   31 ar
@<TRIPOS>SUBSTRUCTURE
     1 ATP         1 GROUP   0 A     ****
@<TRIPOS>MOLECULE
[[[5-(6-amino-1,8-dihydropurine-6,8-diylium-7-id-9-yl)-3,4-dihydroxy-tetrahydrofuran-2-yl]methoxy-hydroxy-phosphoryl]oxy-oxido-phosphoryl] phosphate
   45    47     1     0     0
SMALL
USER_CHARGES

@<TRIPOS>ATOM
      1 PG         46.1070   45.1820   56.9500 P.3       1 ATP        -1.1921
      2 O1G        45.7790   46.3300   56.0520 O.2       1 ATP         0.3195
      3 O2G        47.3820   44.4970   56.6260 O.3       1 ATP         0.3195
      4 O3G        45.9720   45.5300   58.3750 O.3       1 ATP         0.3195
      5 PB         43.9110   43.7400   55.6550 P.3       1 ATP        -1.1062
      6 O1B        42.9750   42.7220   55.9860 O.2       1 ATP         0.3195
      7 O2B        43.6030   44.7670   54.6780 O.3       1 ATP         0.3195
      8 O3B        45.0410   44.0150   56.7380 O.3       1 ATP         0.4672
      9 PA         45.2280   42.6690   53.2570 P.3       1 ATP        -0.9715
     10 O1A        46.3800   43.3960   52.7880 O.2       1 ATP         0.2707
     11 O2A        44.1830   42.1900   52.3510 O.3       1 ATP         0.0326
     12 O3A        44.9170   42.7160   54.7890 O.3       1 ATP         0.4672
     13 O5'        46.1720   41.5680   53.3020 O.3       1 ATP         0.1618
     14 C5'        46.6090   40.4220   53.5420 C.3       1 ATP         0.1504
     15 C4'        46.5200   38.9890   53.3640 C.3       1 ATP         0.1111
     16 O4'        46.7850   38.9080   51.9480 O.3       1 ATP        -0.1436
     17 C3'        47.8080   38.8740   54.1120 C.3       1 ATP         0.1111
     18 O3'        47.7130   38.3570   55.4230 O.3       1 ATP        -0.2728
     19 C2'        48.7190   38.1160   53.1390 C.3       1 ATP         0.1111
     20 O2'        48.6320   36.7370   53.4250 O.3       1 ATP        -0.2728
     21 C1'        48.1330   38.4090   51.7210 C.3       1 ATP         0.2693
     22 N9         48.8460   39.4640   50.9860 N.pl3     1 ATP        -0.3222
     23 C8         48.6160   40.8420   50.9450 C.cat     1 ATP         0.1640
     24 N7         49.4250   41.4890   50.1650 N.ar      1 ATP        -0.1640
     25 C5         50.2320   40.4700   49.6640 C.ar      1 ATP         0.0820
     26 C6         51.3080   40.4660   48.7310 C.cat     1 ATP         0.1640
     27 N6         51.7210   41.5680   48.1290 N.pl3     1 ATP        -0.4916
     28 N1         51.9120   39.2740   48.4470 N.pl3     1 ATP        -0.4390
     29 C2         51.4930   38.1510   49.0290 C.ar      1 ATP         0.5691
     30 N3         50.4910   38.0160   49.9000 N.ar      1 ATP        -0.4283
     31 C4         49.8920   39.2530   50.1710 C.ar      1 ATP         0.2226
     32 HOA2       43.3173   42.8293   52.1230 H         1 ATP         0.2010
     33 H5'1       47.6492   40.3457   53.1926 H         1 ATP        -0.0393
     34 H5'2       46.5714   40.2346   54.6253 H         1 ATP        -0.0393
     35 H4'        45.6654   38.3452   53.6190 H         1 ATP        -0.0393
     36 H3'        48.2020   39.8423   54.4542 H         1 ATP        -0.0393
     37 HO3'       47.0751   38.8571   56.1666 H         1 ATP         0.2010
     38 H2'        49.7910   38.3380   53.2466 H         1 ATP        -0.0393
     39 HO2'       49.0003   36.3505   54.3868 H         1 ATP         0.2010
     40 H1'        48.1676   37.5175   51.0776 H         1 ATP        -0.0393
     41 H8         47.8360   41.3900   51.4990 H         1 ATP         0.0000
     42 HN61       51.2389   42.5309   48.3533 H         1 ATP         0.2048
     43 HN62       52.5468   41.5221   47.4038 H         1 ATP         0.2048
     44 H2         52.0360   37.2290   48.7590 H         1 ATP        -0.1292
     45 H45        52.7492   39.2376   47.7344 H         1 ATP         0.2048
@<TRIPOS>BOND
     1    1    2 2
     2    1    3 1
     3    1    4 1
     4    1    8 1
     5    5    6 2
     6    5    7 1
     7    5    8 1
     8    5   12 1
     9    9   10 2
    10    9   11 1
    11    9   12 1
    12    9   13 1
    13   11   32 1
    14   13   14 1
    15   14   15 1
    16   14   33 1
    17   14   34 1
    18   15   16 1
    19   15   17 1
    20   15   35 1
    21   16   21 1
    22   17   18 1
    23   17   19 1
    24   17   36 1
    25   18   37 1
    26   19   20 1
    27   19   21 1
    28   19   38 1
    29   20   39 1
    30   21   22 1
    31   21   40 1
    32   22   23 ar
    33   22   31 ar
    34   23   24 ar
    35   23   41 1
    36   24   25 ar
    37   25   26 ar
    38   25   31 ar
    39   26   27 1
    40   26   28 ar
    41   27   42 1
    42   27   43 1
    43   28   29 ar
    44   28   45 1
    45   29   30 ar
    46   29   44 1
    47   30   31 ar
@<TRIPOS>SUBSTRUCTURE
     1 ATP         1 GROUP   0 A     ****
@<TRIPOS>MOLECULE
[[[5-(6-aminopurin-9-yl)-3,4-dihydroxy-tetrahydrofuran-2-yl]methoxy-hydroxy-phosphoryl]oxy-hydroxy-phosphoryl] phosphate
   45    47     1     0     0
SMALL
USER_CHARGES

@<TRIPOS>ATOM
      1 PG         46.1070   45.1820   56.9500 P.3       1 ATP         1.3364
      2 O1G        45.7790   46.3300   56.0520 O.2       1 ATP        -0.8759
      3 O2G        47.3820   44.4970   56.6260 O.3       1 ATP        -0.8759
      4 O3G        45.9720   45.5300   58.3750 O.3       1 ATP        -0.8759
      5 PB         43.9110   43.7400   55.6550 P.3       1 ATP         1.7980
      6 O1B        42.9750   42.7220   55.9860 O.2       1 ATP        -0.9123
      7 O2B        43.6030   44.7670   54.6780 O.3       1 ATP        -0.7754
      8 O3B        45.0410   44.0150   56.7380 O.3       1 ATP        -0.6996
      9 PA         45.2280   42.6690   53.2570 P.3       1 ATP         1.7855
     10 O1A        46.3800   43.3960   52.7880 O.2       1 ATP        -0.8495
     11 O2A        44.1830   42.1900   52.3510 O.3       1 ATP        -0.8288
     12 O3A        44.9170   42.7160   54.7890 O.3       1 ATP        -0.8018
     13 O5'        46.1720   41.5680   53.3020 O.3       1 ATP        -0.5853
     14 C5'        46.6090   40.4220   53.5420 C.3       1 ATP         0.1809
     15 C4'        46.5200   38.9890   53.3640 C.3       1 ATP         0.1309
     16 O4'        46.7850   38.9080   51.9480 O.3       1 ATP        -0.4224
     17 C3'        47.8080   38.8740   54.1120 C.3       1 ATP         0.0947
     18 O3'        47.7130   38.3570   55.4230 O.3       1 ATP        -0.5906
     19 C2'        48.7190   38.1160   53.1390 C.3       1 ATP         0.0556
     20 O2'        48.6320   36.7370   53.4250 O.3       1 ATP        -0.5838
     21 C1'        48.1330   38.4090   51.7210 C.3       1 ATP         0.4381
     22 N9         48.8460   39.4640   50.9860 N.pl3     1 ATP        -0.6883
     23 C8         48.6160   40.8420   50.9450 C.ar      1 ATP         0.5620
     24 N7         49.4250   41.4890   50.1650 N.ar      1 ATP        -0.5584
     25 C5         50.2320   40.4700   49.6640 C.ar      1 ATP        -0.2164
     26 C6         51.3080   40.4660   48.7310 C.ar      1 ATP         0.7376
     27 N6         51.7210   41.5680   48.1290 N.pl3     1 ATP        -0.9514
     28 N1         51.9120   39.2740   48.4470 N.ar      1 ATP        -0.8054
     29 C2         51.4930   38.1510   49.0290 C.ar      1 ATP         0.6649
     30 N3         50.4910   38.0160   49.9000 N.ar      1 ATP        -0.7136
     31 C4         49.8920   39.2530   50.1710 C.ar      1 ATP         0.5805
     32 HOB2       42.9452   45.6055   54.9502 H         1 ATP         0.4367
     33 HOA2       43.3173   42.8293   52.1230 H         1 ATP         0.4916
     34 H5'1       47.6492   40.3457   53.1926 H         1 ATP         0.0552
     35 H5'2       46.5714   40.2346   54.6253 H         1 ATP         0.0552
     36 H4'        45.6654   38.3452   53.6190 H         1 ATP         0.1061
     37 H3'        48.2020   39.8423   54.4542 H         1 ATP         0.0937
     38 HO3'       47.0751   38.8571   56.1666 H         1 ATP         0.4070
     39 H2'        49.7910   38.3380   53.2466 H         1 ATP         0.0758
     40 HO2'       49.0003   36.3505   54.3868 H         1 ATP         0.4080
     41 H1'        48.1676   37.5175   51.0776 H         1 ATP         0.1071
     42 H8         47.8360   41.3900   51.4990 H         1 ATP         0.1022
     43 HN61       51.2389   42.5309   48.3533 H         1 ATP         0.4336
     44 HN62       52.5468   41.5221   47.4038 H         1 ATP         0.4336
     45 H2         52.0360   37.2290   48.7590 H         1 ATP         0.0401
@<TRIPOS>BOND
     1    1    2 2
     2    1    3 1
     3    1    4 1
     4    1    8 1
     5    5    6 2
     6    5    7 1
     7    5    8 1
     8    5   12 1
     9    7   32 1
    10    9   10 2
    11    9   11 1
    12    9   12 1
    13    9   13 1
    14   11   33 1
    15   13   14 1
    16   14   15 1
    17   14   34 1
    18   14   35 1
    19   15   16 1
    20   15   17 1
    21   15   36 1
    22   16   21 1
    23   17   18 1
    24   17   19 1
    25   17   37 1
    26   18   38 1
    27   19   20 1
    28   19   21 1
    29   19   39 1
    30   20   40 1
    31   21   22 1
    32   21   41 1
    33   22   23 ar
    34   22   31 ar
    35   23   24 ar
    36   23   42 1
    37   24   25 ar
    38   25   26 ar
    39   25   31 ar
    40   26   27 1
    41   26   28 ar
    42   27   43 1
    43   27   44 1
    44   28   29 ar
    45   29   30 ar
    46   29   45 1
    47   30   31 ar
@<TRIPOS>SUBSTRUCTURE
     1 ATP         1 GROUP   0 A     ****
@<TRIPOS>MOLECULE
[[5-(6-amino-1,8-dihydropurine-6,8-diylium-7-id-9-yl)-3,4-dihydroxy-tetrahydrofuran-2-yl]methoxy-hydroxy-phosphoryl] phosphono hydrogen phosphate
   48    50     1     0     0
SMALL
USER_CHARGES

@<TRIPOS>ATOM
      1 PG         46.1070   45.1820   56.9500 P.3       1 ATP         1.7931
      2 O1G        45.7790   46.3300   56.0520 O.2       1 ATP        -0.8245
      3 O2G        47.3820   44.4970   56.6260 O.3       1 ATP        -0.7758
      4 O3G        45.9720   45.5300   58.3750 O.3       1 ATP        -0.7758
      5 PB         43.9110   43.7400   55.6550 P.3       1 ATP         1.9416
      6 O1B        42.9750   42.7220   55.9860 O.2       1 ATP        -0.8420
      7 O2B        43.6030   44.7670   54.6780 O.3       1 ATP        -0.7993
      8 O3B        45.0410   44.0150   56.7380 O.3       1 ATP        -0.7763
      9 PA         45.2280   42.6690   53.2570 P.3       1 ATP         1.7989
     10 O1A        46.3800   43.3960   52.7880 O.2       1 ATP        -0.8148
     11 O2A        44.1830   42.1900   52.3510 O.3       1 ATP        -0.8139
     12 O3A        44.9170   42.7160   54.7890 O.3       1 ATP        -0.8202
     13 O5'        46.1720   41.5680   53.3020 O.3       1 ATP        -0.5616
     14 C5'        46.6090   40.4220   53.5420 C.3       1 ATP         0.1639
     15 C4'        46.5200   38.9890   53.3640 C.3       1 ATP         0.1354
     16 O4'        46.7850   38.9080   51.9480 O.3       1 ATP        -0.4135
     17 C3'        47.8080   38.8740   54.1120 C.3       1 ATP         0.0995
     18 O3'        47.7130   38.3570   55.4230 O.3       1 ATP        -0.5734
     19 C2'        48.7190   38.1160   53.1390 C.3       1 ATP         0.0652
     20 O2'        48.6320   36.7370   53.4250 O.3       1 ATP        -0.5780
     21 C1'        48.1330   38.4090   51.7210 C.3       1 ATP         0.4207
     22 N9         48.8460   39.4640   50.9860 N.pl3     1 ATP        -0.4600
     23 C8         48.6160   40.8420   50.9450 C.cat     1 ATP         0.1694
     24 N7         49.4250   41.4890   50.1650 N.ar      1 ATP        -0.2540
     25 C5         50.2320   40.4700   49.6640 C.ar      1 ATP        -0.1403
     26 C6         51.3080   40.4660   48.7310 C.cat     1 ATP         0.4951
     27 N6         51.7210   41.5680   48.1290 N.pl3     1 ATP        -0.8019
     28 N1         51.9120   39.2740   48.4470 N.pl3     1 ATP        -0.6941
     29 C2         51.4930   38.1510   49.0290 C.ar      1 ATP         0.6475
     30 N3         50.4910   38.0160   49.9000 N.ar      1 ATP        -0.5183
     31 C4         49.8920   39.2530   50.1710 C.ar      1 ATP         0.3000
     32 HOG2       48.3320   45.0490   56.6795 H         1 ATP         0.4939
     33 HOG3       46.5992   46.3224   58.8095 H         1 ATP         0.4939
     34 HOB2       42.9452   45.6055   54.9502 H         1 ATP         0.5072
     35 HOA2       43.3173   42.8293   52.1230 H         1 ATP         0.5058
     36 H5'1       47.6492   40.3457   53.1926 H         1 ATP         0.0543
     37 H5'2       46.5714   40.2346   54.6253 H         1 ATP         0.0543
     38 H4'        45.6654   38.3452   53.6190 H         1 ATP         0.1294
     39 H3'        48.2020   39.8423   54.4542 H         1 ATP         0.0900
     40 HO3'       47.0751   38.8571   56.1666 H         1 ATP         0.4260
     41 H2'        49.7910   38.3380   53.2466 H         1 ATP         0.0698
     42 HO2'       49.0003   36.3505   54.3868 H         1 ATP         0.4288
     43 H1'        48.1676   37.5175   51.0776 H         1 ATP         0.1374
     44 H8         47.8360   41.3900   51.4990 H         1 ATP         0.2460
     45 HN61       51.2389   42.5309   48.3533 H         1 ATP         0.4865
     46 HN62       52.5468   41.5221   47.4038 H         1 ATP         0.4865
     47 H2         52.0360   37.2290   48.7590 H         1 ATP         0.1083
     48 H48        52.7492   39.2376   47.7344 H         1 ATP         0.4893
@<TRIPOS>BOND
     1    1    2 2
     2    1    3 1
     3    1    4 1
     4    1    8 1
     5    3   32 1
     6    4   33 1
     7    5    6 2
     8    5    7 1
     9    5    8 1
    10    5   12 1
    11    7   34 1
    12    9   10 2
    13    9   11 1
    14    9   12 1
    15    9   13 1
    16   11   35 1
    17   13   14 1
    18   14   15 1
    19   14   36 1
    20   14   37 1
    21   15   16 1
    22   15   17 1
    23   15   38 1
    24   16   21 1
    25   17   18 1
    26   17   19 1
    27   17   39 1
    28   18   40 1
    29   19   20 1
    30   19   21 1
    31   19   41 1
    32   20   42 1
    33   21   22 1
    34   21   43 1
    35   22   23 ar
    36   22   31 ar
    37   23   24 ar
    38   23   44 1
    39   24   25 ar
    40   25   26 ar
    41   25   31 ar
    42   26   27 1
    43   26   28 ar
    44   27   45 1
    45   27   46 1
    46   28   29 ar
    47   28   48 1
    48   29   30 ar
    49   29   47 1
    50   30   31 ar
@<TRIPOS>SUBSTRUCTURE
     1 ATP         1 GROUP   0 A     ****
@<TRIPOS>MOLECULE
[5-(6-amino-7,8-dihydropurin-8-ylium-9-yl)-3,4-dihydroxy-tetrahydrofuran-2-yl]methyl [hydroxy(phosphonooxy)phosphoryl] phosphate
   47    49     1     0     0
SMALL
USER_CHARGES

@<TRIPOS>ATOM
      1 PG         46.1070   45.1820   56.9500 P.3       1 ATP         1.8237
      2 O1G        45.7790   46.3300   56.0520 O.2       1 ATP        -0.8455
      3 O2G        47.3820   44.4970   56.6260 O.3       1 ATP        -0.7970
      4 O3G        45.9720   45.5300   58.3750 O.3       1 ATP        -0.7970
      5 PB         43.9110   43.7400   55.6550 P.3       1 ATP         1.9358
      6 O1B        42.9750   42.7220   55.9860 O.2       1 ATP        -0.8836
      7 O2B        43.6030   44.7670   54.6780 O.3       1 ATP        -0.8065
      8 O3B        45.0410   44.0150   56.7380 O.3       1 ATP        -0.8233
      9 PA         45.2280   42.6690   53.2570 P.3       1 ATP         1.5686
     10 O1A        46.3800   43.3960   52.7880 O.2       1 ATP        -0.8169
     11 O2A        44.1830   42.1900   52.3510 O.3       1 ATP        -0.8169
     12 O3A        44.9170   42.7160   54.7890 O.3       1 ATP        -0.7987
     13 O5'        46.1720   41.5680   53.3020 O.3       1 ATP        -0.5693
     14 C5'        46.6090   40.4220   53.5420 C.3       1 ATP         0.1841
     15 C4'        46.5200   38.9890   53.3640 C.3       1 ATP         0.0904
     16 O4'        46.7850   38.9080   51.9480 O.3       1 ATP        -0.4083
     17 C3'        47.8080   38.8740   54.1120 C.3       1 ATP         0.0826
     18 O3'        47.7130   38.3570   55.4230 O.3       1 ATP        -0.6106
     19 C2'        48.7190   38.1160   53.1390 C.3       1 ATP         0.1294
     20 O2'        48.6320   36.7370   53.4250 O.3       1 ATP        -0.5701
     21 C1'        48.1330   38.4090   51.7210 C.3       1 ATP         0.3967
     22 N9         48.8460   39.4640   50.9860 N.pl3     1 ATP        -0.5600
     23 C8         48.6160   40.8420   50.9450 C.cat     1 ATP         0.3009
     24 N7         49.4250   41.4890   50.1650 N.pl3     1 ATP        -0.5113
     25 C5         50.2320   40.4700   49.6640 C.ar      1 ATP        -0.2824
     26 C6         51.3080   40.4660   48.7310 C.ar      1 ATP         0.7670
     27 N6         51.7210   41.5680   48.1290 N.pl3     1 ATP        -0.9491
     28 N1         51.9120   39.2740   48.4470 N.ar      1 ATP        -0.7474
     29 C2         51.4930   38.1510   49.0290 C.ar      1 ATP         0.7118
     30 N3         50.4910   38.0160   49.9000 N.ar      1 ATP        -0.6661
     31 C4         49.8920   39.2530   50.1710 C.ar      1 ATP         0.6308
     32 HOG2       48.3320   45.0490   56.6795 H         1 ATP         0.4930
     33 HOG3       46.5992   46.3224   58.8095 H         1 ATP         0.4930
     34 HOB2       42.9452   45.6055   54.9502 H         1 ATP         0.4808
     35 H5'1       47.6492   40.3457   53.1926 H         1 ATP         0.0350
     36 H5'2       46.5714   40.2346   54.6253 H         1 ATP         0.0350
     37 H4'        45.6654   38.3452   53.6190 H         1 ATP         0.1244
     38 H3'        48.2020   39.8423   54.4542 H         1 ATP         0.0924
     39 HO3'       47.0751   38.8571   56.1666 H         1 ATP         0.4379
     40 H2'        49.7910   38.3380   53.2466 H         1 ATP         0.0849
     41 HO2'       49.0003   36.3505   54.3868 H         1 ATP         0.4417
     42 H1'        48.1676   37.5175   51.0776 H         1 ATP         0.1307
     43 H8         47.8360   41.3900   51.4990 H         1 ATP         0.2875
     44 HN61       51.2389   42.5309   48.3533 H         1 ATP         0.4559
     45 HN62       52.5468   41.5221   47.4038 H         1 ATP         0.4559
     46 H2         52.0360   37.2290   48.7590 H         1 ATP         0.0858
     47 H47        49.3328   42.5801   50.0600 H         1 ATP         0.5042
@<TRIPOS>BOND
     1    1    2 2
     2    1    3 1
     3    1    4 1
     4    1    8 1
     5    3   32 1
     6    4   33 1
     7    5    6 2
     8    5    7 1
     9    5    8 1
    10    5   12 1
    11    7   34 1
    12    9   10 2
    13    9   11 1
    14    9   12 1
    15    9   13 1
    16   13   14 1
    17   14   15 1
    18   14   35 1
    19   14   36 1
    20   15   16 1
    21   15   17 1
    22   15   37 1
    23   16   21 1
    24   17   18 1
    25   17   19 1
    26   17   38 1
    27   18   39 1
    28   19   20 1
    29   19   21 1
    30   19   40 1
    31   20   41 1
    32   21   22 1
    33   21   42 1
    34   22   23 ar
    35   22   31 ar
    36   23   24 ar
    37   23   43 1
    38   24   25 ar
    39   24   47 1
    40   25   26 ar
    41   25   31 ar
    42   26   27 1
    43   26   28 ar
    44   27   44 1
    45   27   45 1
    46   28   29 ar
    47   29   30 ar
    48   29   46 1
    49   30   31 ar
@<TRIPOS>SUBSTRUCTURE
     1 ATP         1 GROUP   0 A     ****
@<TRIPOS>MOLECULE
[[[3,4-dihydroxy-5-(6-imino-7,8-dihydro-1~{H}-purin-8-ylium-9-yl)tetrahydrofuran-2-yl]methoxy-hydroxy-phosphoryl]oxy-oxido-phosphoryl] hydrogen phosphate
   46    48     1     0     0
SMALL
USER_CHARGES

@<TRIPOS>ATOM
      1 PG         46.1070   45.1820   56.9500 P.3       1 ATP         1.5644
      2 O1G        45.7790   46.3300   56.0520 O.2       1 ATP        -0.8581
      3 O2G        47.3820   44.4970   56.6260 O.3       1 ATP        -0.8581
      4 O3G        45.9720   45.5300   58.3750 O.3       1 ATP        -0.7962
      5 PB         43.9110   43.7400   55.6550 P.3       1 ATP         1.6830
      6 O1B        42.9750   42.7220   55.9860 O.2       1 ATP        -0.8633
      7 O2B        43.6030   44.7670   54.6780 O.3       1 ATP        -0.8633
      8 O3B        45.0410   44.0150   56.7380 O.3       1 ATP        -0.8097
      9 PA         45.2280   42.6690   53.2570 P.3       1 ATP         1.7610
     10 O1A        46.3800   43.3960   52.7880 O.2       1 ATP        -0.8554
     11 O2A        44.1830   42.1900   52.3510 O.3       1 ATP        -0.8102
     12 O3A        44.9170   42.7160   54.7890 O.3       1 ATP        -0.7693
     13 O5'        46.1720   41.5680   53.3020 O.3       1 ATP        -0.5757
     14 C5'        46.6090   40.4220   53.5420 C.3       1 ATP         0.1911
     15 C4'        46.5200   38.9890   53.3640 C.3       1 ATP         0.1218
     16 O4'        46.7850   38.9080   51.9480 O.3       1 ATP        -0.4138
     17 C3'        47.8080   38.8740   54.1120 C.3       1 ATP         0.1338
     18 O3'        47.7130   38.3570   55.4230 O.3       1 ATP        -0.5756
     19 C2'        48.7190   38.1160   53.1390 C.3       1 ATP         0.0673
     20 O2'        48.6320   36.7370   53.4250 O.3       1 ATP        -0.5671
     21 C1'        48.1330   38.4090   51.7210 C.3       1 ATP         0.3795
     22 N9         48.8460   39.4640   50.9860 N.pl3     1 ATP        -0.4175
     23 C8         48.6160   40.8420   50.9450 C.cat     1 ATP         0.2552
     24 N7         49.4250   41.4890   50.1650 N.pl3     1 ATP        -0.4731
     25 C5         50.2320   40.4700   49.6640 C.ar      1 ATP        -0.1295
     26 C6         51.3080   40.4660   48.7310 C.ar      1 ATP         0.7196
     27 N6         51.7210   41.5680   48.1290 N.2       1 ATP        -0.8094
     28 N1         51.9120   39.2740   48.4470 N.pl3     1 ATP        -0.8312
     29 C2         51.4930   38.1510   49.0290 C.ar      1 ATP         0.6744
     30 N3         50.4910   38.0160   49.9000 N.ar      1 ATP        -0.5937
     31 C4         49.8920   39.2530   50.1710 C.ar      1 ATP         0.2810
     32 HOG3       46.5992   46.3224   58.8095 H         1 ATP         0.4152
     33 HOA2       43.3173   42.8293   52.1230 H         1 ATP         0.4571
     34 H5'1       47.6492   40.3457   53.1926 H         1 ATP         0.0465
     35 H5'2       46.5714   40.2346   54.6253 H         1 ATP         0.0465
     36 H4'        45.6654   38.3452   53.6190 H         1 ATP         0.1379
     37 H3'        48.2020   39.8423   54.4542 H         1 ATP         0.1317
     38 HO3'       47.0751   38.8571   56.1666 H         1 ATP         0.4175
     39 H2'        49.7910   38.3380   53.2466 H         1 ATP         0.0669
     40 HO2'       49.0003   36.3505   54.3868 H         1 ATP         0.4064
     41 H1'        48.1676   37.5175   51.0776 H         1 ATP         0.1285
     42 H8         47.8360   41.3900   51.4990 H         1 ATP         0.2954
     43 HN62       51.9400   42.2520   48.8520 H         1 ATP         0.4226
     44 H2         52.0360   37.2290   48.7590 H         1 ATP         0.0826
     45 H45        52.7492   39.2376   47.7344 H         1 ATP         0.4581
     46 H46        49.3328   42.5801   50.0600 H         1 ATP         0.5252
@<TRIPOS>BOND
     1    1    2 2
     2    1    3 1
     3    1    4 1
     4    1    8 1
     5    4   32 1
     6    5    6 2
     7    5    7 1
     8    5    8 1
     9    5   12 1
    10    9   10 2
    11    9   11 1
    12    9   12 1
    13    9   13 1
    14   11   33 1
    15   13   14 1
    16   14   15 1
    17   14   34 1
    18   14   35 1
    19   15   16 1
    20   15   17 1
    21   15   36 1
    22   16   21 1
    23   17   18 1
    24   17   19 1
    25   17   37 1
    26   18   38 1
    27   19   20 1
    28   19   21 1
    29   19   39 1
    30   20   40 1
    31   21   22 1
    32   21   41 1
    33   22   23 ar
    34   22   31 ar
    35   23   24 ar
    36   23   42 1
    37   24   25 ar
    38   24   46 1
    39   25   26 ar
    40   25   31 ar
    41   26   27 2
    42   26   28 ar
    43   27   43 1
    44   28   29 ar
    45   28   45 1
    46   29   30 ar
    47   29   44 1
    48   30   31 ar
@<TRIPOS>SUBSTRUCTURE
     1 ATP         1 GROUP   0 A     ****
@<TRIPOS>MOLECULE
[[[3,4-dihydroxy-5-(6-imino-7,8-dihydro-1~{H}-purin-8-ylium-9-yl)tetrahydrofuran-2-yl]methoxy-hydroxy-phosphoryl]oxy-oxido-phosphoryl] hydrogen phosphate
   46    48     1     0     0
SMALL
USER_CHARGES

@<TRIPOS>ATOM
      1 PG         46.1070   45.1820   56.9500 P.3       1 ATP         1.5644
      2 O1G        45.7790   46.3300   56.0520 O.2       1 ATP        -0.8581
      3 O2G        47.3820   44.4970   56.6260 O.3       1 ATP        -0.8581
      4 O3G        45.9720   45.5300   58.3750 O.3       1 ATP        -0.7962
      5 PB         43.9110   43.7400   55.6550 P.3       1 ATP         1.6830
      6 O1B        42.9750   42.7220   55.9860 O.2       1 ATP        -0.8633
      7 O2B        43.6030   44.7670   54.6780 O.3       1 ATP        -0.8633
      8 O3B        45.0410   44.0150   56.7380 O.3       1 ATP        -0.8097
      9 PA         45.2280   42.6690   53.2570 P.3       1 ATP         1.7610
     10 O1A        46.3800   43.3960   52.7880 O.2       1 ATP        -0.8554
     11 O2A        44.1830   42.1900   52.3510 O.3       1 ATP        -0.8102
     12 O3A        44.9170   42.7160   54.7890 O.3       1 ATP        -0.7693
     13 O5'        46.1720   41.5680   53.3020 O.3       1 ATP        -0.5757
     14 C5'        46.6090   40.4220   53.5420 C.3       1 ATP         0.1911
     15 C4'        46.5200   38.9890   53.3640 C.3       1 ATP         0.1218
     16 O4'        46.7850   38.9080   51.9480 O.3       1 ATP        -0.4138
     17 C3'        47.8080   38.8740   54.1120 C.3       1 ATP         0.1338
     18 O3'        47.7130   38.3570   55.4230 O.3       1 ATP        -0.5756
     19 C2'        48.7190   38.1160   53.1390 C.3       1 ATP         0.0673
     20 O2'        48.6320   36.7370   53.4250 O.3       1 ATP        -0.5671
     21 C1'        48.1330   38.4090   51.7210 C.3       1 ATP         0.3795
     22 N9         48.8460   39.4640   50.9860 N.pl3     1 ATP        -0.4175
     23 C8         48.6160   40.8420   50.9450 C.cat     1 ATP         0.2552
     24 N7         49.4250   41.4890   50.1650 N.pl3     1 ATP        -0.4731
     25 C5         50.2320   40.4700   49.6640 C.ar      1 ATP        -0.1295
     26 C6         51.3080   40.4660   48.7310 C.ar      1 ATP         0.7196
     27 N6         51.7210   41.5680   48.1290 N.2       1 ATP        -0.8094
     28 N1         51.9120   39.2740   48.4470 N.pl3     1 ATP        -0.8312
     29 C2         51.4930   38.1510   49.0290 C.ar      1 ATP         0.6744
     30 N3         50.4910   38.0160   49.9000 N.ar      1 ATP        -0.5937
     31 C4         49.8920   39.2530   50.1710 C.ar      1 ATP         0.2810
     32 HOG3       46.5992   46.3224   58.8095 H         1 ATP         0.4152
     33 HOA2       43.3173   42.8293   52.1230 H         1 ATP         0.4571
     34 H5'1       47.6492   40.3457   53.1926 H         1 ATP         0.0465
     35 H5'2       46.5714   40.2346   54.6253 H         1 ATP         0.0465
     36 H4'        45.6654   38.3452   53.6190 H         1 ATP         0.1379
     37 H3'        48.2020   39.8423   54.4542 H         1 ATP         0.1317
     38 HO3'       47.0751   38.8571   56.1666 H         1 ATP         0.4175
     39 H2'        49.7910   38.3380   53.2466 H         1 ATP         0.0669
     40 HO2'       49.0003   36.3505   54.3868 H         1 ATP         0.4064
     41 H1'        48.1676   37.5175   51.0776 H         1 ATP         0.1285
     42 H8         47.8360   41.3900   51.4990 H         1 ATP         0.2954
     43 HN61       52.4910   41.5650   47.4600 H         1 ATP         0.4226
     44 H2         52.0360   37.2290   48.7590 H         1 ATP         0.0826
     45 H45        52.7492   39.2376   47.7344 H         1 ATP         0.4581
     46 H46        49.3328   42.5801   50.0600 H         1 ATP         0.5252
@<TRIPOS>BOND
     1    1    2 2
     2    1    3 1
     3    1    4 1
     4    1    8 1
     5    4   32 1
     6    5    6 2
     7    5    7 1
     8    5    8 1
     9    5   12 1
    10    9   10 2
    11    9   11 1
    12    9   12 1
    13    9   13 1
    14   11   33 1
    15   13   14 1
    16   14   15 1
    17   14   34 1
    18   14   35 1
    19   15   16 1
    20   15   17 1
    21   15   36 1
    22   16   21 1
    23   17   18 1
    24   17   19 1
    25   17   37 1
    26   18   38 1
    27   19   20 1
    28   19   21 1
    29   19   39 1
    30   20   40 1
    31   21   22 1
    32   21   41 1
    33   22   23 ar
    34   22   31 ar
    35   23   24 ar
    36   23   42 1
    37   24   25 ar
    38   24   46 1
    39   25   26 ar
    40   25   31 ar
    41   26   27 2
    42   26   28 ar
    43   27   43 1
    44   28   29 ar
    45   28   45 1
    46   29   30 ar
    47   29   44 1
    48   30   31 ar
@<TRIPOS>SUBSTRUCTURE
     1 ATP         1 GROUP   0 A     ****
@<TRIPOS>MOLECULE
[[[3,4-dihydroxy-5-(6-imino-1~{H}-purin-9-yl)tetrahydrofuran-2-yl]methoxy-hydroxy-phosphoryl]oxy-oxido-phosphoryl] hydrogen phosphate
   45    47     1     0     0
SMALL
USER_CHARGES

@<TRIPOS>ATOM
      1 PG         46.1070   45.1820   56.9500 P.3       1 ATP         1.5414
      2 O1G        45.7790   46.3300   56.0520 O.2       1 ATP        -0.8562
      3 O2G        47.3820   44.4970   56.6260 O.3       1 ATP        -0.8562
      4 O3G        45.9720   45.5300   58.3750 O.3       1 ATP        -0.7907
      5 PB         43.9110   43.7400   55.6550 P.3       1 ATP         1.6574
      6 O1B        42.9750   42.7220   55.9860 O.2       1 ATP        -0.8530
      7 O2B        43.6030   44.7670   54.6780 O.3       1 ATP        -0.8530
      8 O3B        45.0410   44.0150   56.7380 O.3       1 ATP        -0.8003
      9 PA         45.2280   42.6690   53.2570 P.3       1 ATP         1.7415
     10 O1A        46.3800   43.3960   52.7880 O.2       1 ATP        -0.8661
     11 O2A        44.1830   42.1900   52.3510 O.3       1 ATP        -0.8077
     12 O3A        44.9170   42.7160   54.7890 O.3       1 ATP        -0.7685
     13 O5'        46.1720   41.5680   53.3020 O.3       1 ATP        -0.5590
     14 C5'        46.6090   40.4220   53.5420 C.3       1 ATP         0.1960
     15 C4'        46.5200   38.9890   53.3640 C.3       1 ATP         0.0976
     16 O4'        46.7850   38.9080   51.9480 O.3       1 ATP        -0.3865
     17 C3'        47.8080   38.8740   54.1120 C.3       1 ATP         0.0901
     18 O3'        47.7130   38.3570   55.4230 O.3       1 ATP        -0.5889
     19 C2'        48.7190   38.1160   53.1390 C.3       1 ATP         0.0574
     20 O2'        48.6320   36.7370   53.4250 O.3       1 ATP        -0.5923
     21 C1'        48.1330   38.4090   51.7210 C.3       1 ATP         0.2452
     22 N9         48.8460   39.4640   50.9860 N.pl3     1 ATP        -0.1834
     23 C8         48.6160   40.8420   50.9450 C.ar      1 ATP         0.4338
     24 N7         49.4250   41.4890   50.1650 N.ar      1 ATP        -0.6101
     25 C5         50.2320   40.4700   49.6640 C.ar      1 ATP         0.2154
     26 C6         51.3080   40.4660   48.7310 C.ar      1 ATP         0.6130
     27 N6         51.7210   41.5680   48.1290 N.2       1 ATP        -0.8165
     28 N1         51.9120   39.2740   48.4470 N.pl3     1 ATP        -0.8617
     29 C2         51.4930   38.1510   49.0290 C.ar      1 ATP         0.6151
     30 N3         50.4910   38.0160   49.9000 N.ar      1 ATP        -0.5797
     31 C4         49.8920   39.2530   50.1710 C.ar      1 ATP         0.0328
     32 HOG3       46.5992   46.3224   58.8095 H         1 ATP         0.4197
     33 HOA2       43.3173   42.8293   52.1230 H         1 ATP         0.4550
     34 H5'1       47.6492   40.3457   53.1926 H         1 ATP         0.0431
     35 H5'2       46.5714   40.2346   54.6253 H         1 ATP         0.0431
     36 H4'        45.6654   38.3452   53.6190 H         1 ATP         0.1325
     37 H3'        48.2020   39.8423   54.4542 H         1 ATP         0.0782
     38 HO3'       47.0751   38.8571   56.1666 H         1 ATP         0.4062
     39 H2'        49.7910   38.3380   53.2466 H         1 ATP         0.0689
     40 HO2'       49.0003   36.3505   54.3868 H         1 ATP         0.4089
     41 H1'        48.1676   37.5175   51.0776 H         1 ATP         0.1098
     42 H8         47.8360   41.3900   51.4990 H         1 ATP         0.0929
     43 HN62       51.9400   42.2520   48.8520 H         1 ATP         0.3678
     44 H2         52.0360   37.2290   48.7590 H         1 ATP         0.0383
     45 H45        52.7492   39.2376   47.7344 H         1 ATP         0.4286
@<TRIPOS>BOND
     1    1    2 2
     2    1    3 1
     3    1    4 1
     4    1    8 1
     5    4   32 1
     6    5    6 2
     7    5    7 1
     8    5    8 1
     9    5   12 1
    10    9   10 2
    11    9   11 1
    12    9   12 1
    13    9   13 1
    14   11   33 1
    15   13   14 1
    16   14   15 1
    17   14   34 1
    18   14   35 1
    19   15   16 1
    20   15   17 1
    21   15   36 1
    22   16   21 1
    23   17   18 1
    24   17   19 1
    25   17   37 1
    26   18   38 1
    27   19   20 1
    28   19   21 1
    29   19   39 1
    30   20   40 1
    31   21   22 1
    32   21   41 1
    33   22   23 ar
    34   22   31 ar
    35   23   24 ar
    36   23   42 1
    37   24   25 ar
    38   25   26 ar
    39   25   31 ar
    40   26   27 2
    41   26   28 ar
    42   27   43 1
    43   28   29 ar
    44   28   45 1
    45   29   30 ar
    46   29   44 1
    47   30   31 ar
@<TRIPOS>SUBSTRUCTURE
     1 ATP         1 GROUP   0 A     ****
@<TRIPOS>MOLECULE
[[[3,4-dihydroxy-5-(6-imino-1~{H}-purin-9-yl)tetrahydrofuran-2-yl]methoxy-hydroxy-phosphoryl]oxy-oxido-phosphoryl] hydrogen phosphate
   45    47     1     0     0
SMALL
USER_CHARGES

@<TRIPOS>ATOM
      1 PG         46.1070   45.1820   56.9500 P.3       1 ATP         1.5414
      2 O1G        45.7790   46.3300   56.0520 O.2       1 ATP        -0.8562
      3 O2G        47.3820   44.4970   56.6260 O.3       1 ATP        -0.8562
      4 O3G        45.9720   45.5300   58.3750 O.3       1 ATP        -0.7907
      5 PB         43.9110   43.7400   55.6550 P.3       1 ATP         1.6574
      6 O1B        42.9750   42.7220   55.9860 O.2       1 ATP        -0.8530
      7 O2B        43.6030   44.7670   54.6780 O.3       1 ATP        -0.8530
      8 O3B        45.0410   44.0150   56.7380 O.3       1 ATP        -0.8003
      9 PA         45.2280   42.6690   53.2570 P.3       1 ATP         1.7415
     10 O1A        46.3800   43.3960   52.7880 O.2       1 ATP        -0.8661
     11 O2A        44.1830   42.1900   52.3510 O.3       1 ATP        -0.8077
     12 O3A        44.9170   42.7160   54.7890 O.3       1 ATP        -0.7685
     13 O5'        46.1720   41.5680   53.3020 O.3       1 ATP        -0.5590
     14 C5'        46.6090   40.4220   53.5420 C.3       1 ATP         0.1960
     15 C4'        46.5200   38.9890   53.3640 C.3       1 ATP         0.0976
     16 O4'        46.7850   38.9080   51.9480 O.3       1 ATP        -0.3865
     17 C3'        47.8080   38.8740   54.1120 C.3       1 ATP         0.0901
     18 O3'        47.7130   38.3570   55.4230 O.3       1 ATP        -0.5889
     19 C2'        48.7190   38.1160   53.1390 C.3       1 ATP         0.0574
     20 O2'        48.6320   36.7370   53.4250 O.3       1 ATP        -0.5923
     21 C1'        48.1330   38.4090   51.7210 C.3       1 ATP         0.2452
     22 N9         48.8460   39.4640   50.9860 N.pl3     1 ATP        -0.1834
     23 C8         48.6160   40.8420   50.9450 C.ar      1 ATP         0.4338
     24 N7         49.4250   41.4890   50.1650 N.ar      1 ATP        -0.6101
     25 C5         50.2320   40.4700   49.6640 C.ar      1 ATP         0.2154
     26 C6         51.3080   40.4660   48.7310 C.ar      1 ATP         0.6130
     27 N6         51.7210   41.5680   48.1290 N.2       1 ATP        -0.8165
     28 N1         51.9120   39.2740   48.4470 N.pl3     1 ATP        -0.8617
     29 C2         51.4930   38.1510   49.0290 C.ar      1 ATP         0.6151
     30 N3         50.4910   38.0160   49.9000 N.ar      1 ATP        -0.5797
     31 C4         49.8920   39.2530   50.1710 C.ar      1 ATP         0.0328
     32 HOG3       46.5992   46.3224   58.8095 H         1 ATP         0.4197
     33 HOA2       43.3173   42.8293   52.1230 H         1 ATP         0.4550
     34 H5'1       47.6492   40.3457   53.1926 H         1 ATP         0.0431
     35 H5'2       46.5714   40.2346   54.6253 H         1 ATP         0.0431
     36 H4'        45.6654   38.3452   53.6190 H         1 ATP         0.1325
     37 H3'        48.2020   39.8423   54.4542 H         1 ATP         0.0782
     38 HO3'       47.0751   38.8571   56.1666 H         1 ATP         0.4062
     39 H2'        49.7910   38.3380   53.2466 H         1 ATP         0.0689
     40 HO2'       49.0003   36.3505   54.3868 H         1 ATP         0.4089
     41 H1'        48.1676   37.5175   51.0776 H         1 ATP         0.1098
     42 H8         47.8360   41.3900   51.4990 H         1 ATP         0.0929
     43 HN61       52.4910   41.5650   47.4600 H         1 ATP         0.3678
     44 H2         52.0360   37.2290   48.7590 H         1 ATP         0.0383
     45 H45        52.7492   39.2376   47.7344 H         1 ATP         0.4286
@<TRIPOS>BOND
     1    1    2 2
     2    1    3 1
     3    1    4 1
     4    1    8 1
     5    4   32 1
     6    5    6 2
     7    5    7 1
     8    5    8 1
     9    5   12 1
    10    9   10 2
    11    9   11 1
    12    9   12 1
    13    9   13 1
    14   11   33 1
    15   13   14 1
    16   14   15 1
    17   14   34 1
    18   14   35 1
    19   15   16 1
    20   15   17 1
    21   15   36 1
    22   16   21 1
    23   17   18 1
    24   17   19 1
    25   17   37 1
    26   18   38 1
    27   19   20 1
    28   19   21 1
    29   19   39 1
    30   20   40 1
    31   21   22 1
    32   21   41 1
    33   22   23 ar
    34   22   31 ar
    35   23   24 ar
    36   23   42 1
    37   24   25 ar
    38   25   26 ar
    39   25   31 ar
    40   26   27 2
    41   26   28 ar
    42   27   43 1
    43   28   29 ar
    44   28   45 1
    45   29   30 ar
    46   29   44 1
    47   30   31 ar
@<TRIPOS>SUBSTRUCTURE
     1 ATP         1 GROUP   0 A     ****
@<TRIPOS>MOLECULE
[[[5-(6-amino-1,8-dihydropurine-6,8-diylium-7-id-9-yl)-3,4-dihydroxy-tetrahydrofuran-2-yl]methoxy-hydroxy-phosphoryl]oxy-hydroxy-phosphoryl] phosphate
   46    48     1     0     0
SMALL
USER_CHARGES

@<TRIPOS>ATOM
      1 PG         46.1070   45.1820   56.9500 P.3       1 ATP         1.3273
      2 O1G        45.7790   46.3300   56.0520 O.2       1 ATP        -0.8181
      3 O2G        47.3820   44.4970   56.6260 O.3       1 ATP        -0.8181
      4 O3G        45.9720   45.5300   58.3750 O.3       1 ATP        -0.8181
      5 PB         43.9110   43.7400   55.6550 P.3       1 ATP         1.7707
      6 O1B        42.9750   42.7220   55.9860 O.2       1 ATP        -0.8474
      7 O2B        43.6030   44.7670   54.6780 O.3       1 ATP        -0.8078
      8 O3B        45.0410   44.0150   56.7380 O.3       1 ATP        -0.7032
      9 PA         45.2280   42.6690   53.2570 P.3       1 ATP         1.7252
     10 O1A        46.3800   43.3960   52.7880 O.2       1 ATP        -0.8058
     11 O2A        44.1830   42.1900   52.3510 O.3       1 ATP        -0.7761
     12 O3A        44.9170   42.7160   54.7890 O.3       1 ATP        -0.7114
     13 O5'        46.1720   41.5680   53.3020 O.3       1 ATP        -0.5745
     14 C5'        46.6090   40.4220   53.5420 C.3       1 ATP         0.1981
     15 C4'        46.5200   38.9890   53.3640 C.3       1 ATP         0.1050
     16 O4'        46.7850   38.9080   51.9480 O.3       1 ATP        -0.3841
     17 C3'        47.8080   38.8740   54.1120 C.3       1 ATP         0.0822
     18 O3'        47.7130   38.3570   55.4230 O.3       1 ATP        -0.5784
     19 C2'        48.7190   38.1160   53.1390 C.3       1 ATP         0.0580
     20 O2'        48.6320   36.7370   53.4250 O.3       1 ATP        -0.5710
     21 C1'        48.1330   38.4090   51.7210 C.3       1 ATP         0.4076
     22 N9         48.8460   39.4640   50.9860 N.pl3     1 ATP        -0.4359
     23 C8         48.6160   40.8420   50.9450 C.cat     1 ATP         0.1755
     24 N7         49.4250   41.4890   50.1650 N.ar      1 ATP        -0.2905
     25 C5         50.2320   40.4700   49.6640 C.ar      1 ATP        -0.1036
     26 C6         51.3080   40.4660   48.7310 C.cat     1 ATP         0.4096
     27 N6         51.7210   41.5680   48.1290 N.pl3     1 ATP        -0.8318
     28 N1         51.9120   39.2740   48.4470 N.pl3     1 ATP        -0.7165
     29 C2         51.4930   38.1510   49.0290 C.ar      1 ATP         0.6120
     30 N3         50.4910   38.0160   49.9000 N.ar      1 ATP        -0.5097
     31 C4         49.8920   39.2530   50.1710 C.ar      1 ATP         0.2352
     32 HOB2       42.9452   45.6055   54.9502 H         1 ATP         0.4987
     33 HOA2       43.3173   42.8293   52.1230 H         1 ATP         0.4629
     34 H5'1       47.6492   40.3457   53.1926 H         1 ATP         0.0490
     35 H5'2       46.5714   40.2346   54.6253 H         1 ATP         0.0490
     36 H4'        45.6654   38.3452   53.6190 H         1 ATP         0.1109
     37 H3'        48.2020   39.8423   54.4542 H         1 ATP         0.0811
     38 HO3'       47.0751   38.8571   56.1666 H         1 ATP         0.4115
     39 H2'        49.7910   38.3380   53.2466 H         1 ATP         0.0694
     40 HO2'       49.0003   36.3505   54.3868 H         1 ATP         0.4114
     41 H1'        48.1676   37.5175   51.0776 H         1 ATP         0.1324
     42 H8         47.8360   41.3900   51.4990 H         1 ATP         0.2428
     43 HN61       51.2389   42.5309   48.3533 H         1 ATP         0.4700
     44 HN62       52.5468   41.5221   47.4038 H         1 ATP         0.4700
     45 H2         52.0360   37.2290   48.7590 H         1 ATP         0.0755
     46 H46        52.7492   39.2376   47.7344 H         1 ATP         0.4610
@<TRIPOS>BOND
     1    1    2 2
     2    1    3 1
     3    1    4 1
     4    1    8 1
     5    5    6 2
     6    5    7 1
     7    5    8 1
     8    5   12 1
     9    7   32 1
    10    9   10 2
    11    9   11 1
    12    9   12 1
    13    9   13 1
    14   11   33 1
    15   13   14 1
    16   14   15 1
    17   14   34 1
    18   14   35 1
    19   15   16 1
    20   15   17 1
    21   15   36 1
    22   16   21 1
    23   17   18 1
    24   17   19 1
    25   17   37 1
    26   18   38 1
    27   19   20 1
    28   19   21 1
    29   19   39 1
    30   20   40 1
    31   21   22 1
    32   21   41 1
    33   22   23 ar
    34   22   31 ar
    35   23   24 ar
    36   23   42 1
    37   24   25 ar
    38   25   26 ar
    39   25   31 ar
    40   26   27 1
    41   26   28 ar
    42   27   43 1
    43   27   44 1
    44   28   29 ar
    45   28   46 1
    46   29   30 ar
    47   29   45 1
    48   30   31 ar
@<TRIPOS>SUBSTRUCTURE
     1 ATP         1 GROUP   0 A     ****
@<TRIPOS>MOLECULE
[[[3,4-dihydroxy-5-(6-imino-7,8-dihydro-1~{H}-purin-8-ylium-9-yl)tetrahydrofuran-2-yl]methoxy-oxido-phosphoryl]oxy-hydroxy-phosphoryl] hydrogen phosphate
   46    48     1     0     0
SMALL
USER_CHARGES

@<TRIPOS>ATOM
      1 PG         46.1070   45.1820   56.9500 P.3       1 ATP         1.5595
      2 O1G        45.7790   46.3300   56.0520 O.2       1 ATP        -0.8438
      3 O2G        47.3820   44.4970   56.6260 O.3       1 ATP        -0.8438
      4 O3G        45.9720   45.5300   58.3750 O.3       1 ATP        -0.7800
      5 PB         43.9110   43.7400   55.6550 P.3       1 ATP         1.9223
      6 O1B        42.9750   42.7220   55.9860 O.2       1 ATP        -0.8953
      7 O2B        43.6030   44.7670   54.6780 O.3       1 ATP        -0.8165
      8 O3B        45.0410   44.0150   56.7380 O.3       1 ATP        -0.8247
      9 PA         45.2280   42.6690   53.2570 P.3       1 ATP         1.6157
     10 O1A        46.3800   43.3960   52.7880 O.2       1 ATP        -0.8629
     11 O2A        44.1830   42.1900   52.3510 O.3       1 ATP        -0.8629
     12 O3A        44.9170   42.7160   54.7890 O.3       1 ATP        -0.8191
     13 O5'        46.1720   41.5680   53.3020 O.3       1 ATP        -0.5644
     14 C5'        46.6090   40.4220   53.5420 C.3       1 ATP         0.2062
     15 C4'        46.5200   38.9890   53.3640 C.3       1 ATP         0.0971
     16 O4'        46.7850   38.9080   51.9480 O.3       1 ATP        -0.3662
     17 C3'        47.8080   38.8740   54.1120 C.3       1 ATP         0.0734
     18 O3'        47.7130   38.3570   55.4230 O.3       1 ATP        -0.5671
     19 C2'        48.7190   38.1160   53.1390 C.3       1 ATP         0.0745
     20 O2'        48.6320   36.7370   53.4250 O.3       1 ATP        -0.5794
     21 C1'        48.1330   38.4090   51.7210 C.3       1 ATP         0.3824
     22 N9         48.8460   39.4640   50.9860 N.pl3     1 ATP        -0.4324
     23 C8         48.6160   40.8420   50.9450 C.cat     1 ATP         0.2662
     24 N7         49.4250   41.4890   50.1650 N.pl3     1 ATP        -0.4772
     25 C5         50.2320   40.4700   49.6640 C.ar      1 ATP        -0.1305
     26 C6         51.3080   40.4660   48.7310 C.ar      1 ATP         0.7186
     27 N6         51.7210   41.5680   48.1290 N.2       1 ATP        -0.8115
     28 N1         51.9120   39.2740   48.4470 N.pl3     1 ATP        -0.8400
     29 C2         51.4930   38.1510   49.0290 C.ar      1 ATP         0.6671
     30 N3         50.4910   38.0160   49.9000 N.ar      1 ATP        -0.5806
     31 C4         49.8920   39.2530   50.1710 C.ar      1 ATP         0.2748
     32 HOG3       46.5992   46.3224   58.8095 H         1 ATP         0.4327
     33 HOB2       42.9452   45.6055   54.9502 H         1 ATP         0.4701
     34 H5'1       47.6492   40.3457   53.1926 H         1 ATP         0.0401
     35 H5'2       46.5714   40.2346   54.6253 H         1 ATP         0.0401
     36 H4'        45.6654   38.3452   53.6190 H         1 ATP         0.1136
     37 H3'        48.2020   39.8423   54.4542 H         1 ATP         0.0693
     38 HO3'       47.0751   38.8571   56.1666 H         1 ATP         0.4124
     39 H2'        49.7910   38.3380   53.2466 H         1 ATP         0.0854
     40 HO2'       49.0003   36.3505   54.3868 H         1 ATP         0.4367
     41 H1'        48.1676   37.5175   51.0776 H         1 ATP         0.1343
     42 H8         47.8360   41.3900   51.4990 H         1 ATP         0.3302
     43 HN62       51.9400   42.2520   48.8520 H         1 ATP         0.4160
     44 H2         52.0360   37.2290   48.7590 H         1 ATP         0.0756
     45 H45        52.7492   39.2376   47.7344 H         1 ATP         0.4587
     46 H46        49.3328   42.5801   50.0600 H         1 ATP         0.5254
@<TRIPOS>BOND
     1    1    2 2
     2    1    3 1
     3    1    4 1
     4    1    8 1
     5    4   32 1
     6    5    6 2
     7    5    7 1
     8    5    8 1
     9    5   12 1
    10    7   33 1
    11    9   10 2
    12    9   11 1
    13    9   12 1
    14    9   13 1
    15   13   14 1
    16   14   15 1
    17   14   34 1
    18   14   35 1
    19   15   16 1
    20   15   17 1
    21   15   36 1
    22   16   21 1
    23   17   18 1
    24   17   19 1
    25   17   37 1
    26   18   38 1
    27   19   20 1
    28   19   21 1
    29   19   39 1
    30   20   40 1
    31   21   22 1
    32   21   41 1
    33   22   23 ar
    34   22   31 ar
    35   23   24 ar
    36   23   42 1
    37   24   25 ar
    38   24   46 1
    39   25   26 ar
    40   25   31 ar
    41   26   27 2
    42   26   28 ar
    43   27   43 1
    44   28   29 ar
    45   28   45 1
    46   29   30 ar
    47   29   44 1
    48   30   31 ar
@<TRIPOS>SUBSTRUCTURE
     1 ATP         1 GROUP   0 A     ****
@<TRIPOS>MOLECULE
[[[3,4-dihydroxy-5-(6-imino-7,8-dihydro-1~{H}-purin-8-ylium-9-yl)tetrahydrofuran-2-yl]methoxy-oxido-phosphoryl]oxy-hydroxy-phosphoryl] hydrogen phosphate
   46    48     1     0     0
SMALL
USER_CHARGES

@<TRIPOS>ATOM
      1 PG         46.1070   45.1820   56.9500 P.3       1 ATP         1.5595
      2 O1G        45.7790   46.3300   56.0520 O.2       1 ATP        -0.8438
      3 O2G        47.3820   44.4970   56.6260 O.3       1 ATP        -0.8438
      4 O3G        45.9720   45.5300   58.3750 O.3       1 ATP        -0.7800
      5 PB         43.9110   43.7400   55.6550 P.3       1 ATP         1.9223
      6 O1B        42.9750   42.7220   55.9860 O.2       1 ATP        -0.8953
      7 O2B        43.6030   44.7670   54.6780 O.3       1 ATP        -0.8165
      8 O3B        45.0410   44.0150   56.7380 O.3       1 ATP        -0.8247
      9 PA         45.2280   42.6690   53.2570 P.3       1 ATP         1.6157
     10 O1A        46.3800   43.3960   52.7880 O.2       1 ATP        -0.8629
     11 O2A        44.1830   42.1900   52.3510 O.3       1 ATP        -0.8629
     12 O3A        44.9170   42.7160   54.7890 O.3       1 ATP        -0.8191
     13 O5'        46.1720   41.5680   53.3020 O.3       1 ATP        -0.5644
     14 C5'        46.6090   40.4220   53.5420 C.3       1 ATP         0.2062
     15 C4'        46.5200   38.9890   53.3640 C.3       1 ATP         0.0971
     16 O4'        46.7850   38.9080   51.9480 O.3       1 ATP        -0.3662
     17 C3'        47.8080   38.8740   54.1120 C.3       1 ATP         0.0734
     18 O3'        47.7130   38.3570   55.4230 O.3       1 ATP        -0.5671
     19 C2'        48.7190   38.1160   53.1390 C.3       1 ATP         0.0745
     20 O2'        48.6320   36.7370   53.4250 O.3       1 ATP        -0.5794
     21 C1'        48.1330   38.4090   51.7210 C.3       1 ATP         0.3824
     22 N9         48.8460   39.4640   50.9860 N.pl3     1 ATP        -0.4324
     23 C8         48.6160   40.8420   50.9450 C.cat     1 ATP         0.2662
     24 N7         49.4250   41.4890   50.1650 N.pl3     1 ATP        -0.4772
     25 C5         50.2320   40.4700   49.6640 C.ar      1 ATP        -0.1305
     26 C6         51.3080   40.4660   48.7310 C.ar      1 ATP         0.7186
     27 N6         51.7210   41.5680   48.1290 N.2       1 ATP        -0.8115
     28 N1         51.9120   39.2740   48.4470 N.pl3     1 ATP        -0.8400
     29 C2         51.4930   38.1510   49.0290 C.ar      1 ATP         0.6671
     30 N3         50.4910   38.0160   49.9000 N.ar      1 ATP        -0.5806
     31 C4         49.8920   39.2530   50.1710 C.ar      1 ATP         0.2748
     32 HOG3       46.5992   46.3224   58.8095 H         1 ATP         0.4327
     33 HOB2       42.9452   45.6055   54.9502 H         1 ATP         0.4701
     34 H5'1       47.6492   40.3457   53.1926 H         1 ATP         0.0401
     35 H5'2       46.5714   40.2346   54.6253 H         1 ATP         0.0401
     36 H4'        45.6654   38.3452   53.6190 H         1 ATP         0.1136
     37 H3'        48.2020   39.8423   54.4542 H         1 ATP         0.0693
     38 HO3'       47.0751   38.8571   56.1666 H         1 ATP         0.4124
     39 H2'        49.7910   38.3380   53.2466 H         1 ATP         0.0854
     40 HO2'       49.0003   36.3505   54.3868 H         1 ATP         0.4367
     41 H1'        48.1676   37.5175   51.0776 H         1 ATP         0.1343
     42 H8         47.8360   41.3900   51.4990 H         1 ATP         0.3302
     43 HN61       52.4910   41.5650   47.4600 H         1 ATP         0.4160
     44 H2         52.0360   37.2290   48.7590 H         1 ATP         0.0756
     45 H45        52.7492   39.2376   47.7344 H         1 ATP         0.4587
     46 H46        49.3328   42.5801   50.0600 H         1 ATP         0.5254
@<TRIPOS>BOND
     1    1    2 2
     2    1    3 1
     3    1    4 1
     4    1    8 1
     5    4   32 1
     6    5    6 2
     7    5    7 1
     8    5    8 1
     9    5   12 1
    10    7   33 1
    11    9   10 2
    12    9   11 1
    13    9   12 1
    14    9   13 1
    15   13   14 1
    16   14   15 1
    17   14   34 1
    18   14   35 1
    19   15   16 1
    20   15   17 1
    21   15   36 1
    22   16   21 1
    23   17   18 1
    24   17   19 1
    25   17   37 1
    26   18   38 1
    27   19   20 1
    28   19   21 1
    29   19   39 1
    30   20   40 1
    31   21   22 1
    32   21   41 1
    33   22   23 ar
    34   22   31 ar
    35   23   24 ar
    36   23   42 1
    37   24   25 ar
    38   24   46 1
    39   25   26 ar
    40   25   31 ar
    41   26   27 2
    42   26   28 ar
    43   27   43 1
    44   28   29 ar
    45   28   45 1
    46   29   30 ar
    47   29   44 1
    48   30   31 ar
@<TRIPOS>SUBSTRUCTURE
     1 ATP         1 GROUP   0 A     ****
@<TRIPOS>MOLECULE
[[[3,4-dihydroxy-5-(6-imino-1~{H}-purin-9-yl)tetrahydrofuran-2-yl]methoxy-oxido-phosphoryl]oxy-hydroxy-phosphoryl] hydrogen phosphate
   45    47     1     0     0
SMALL
USER_CHARGES

@<TRIPOS>ATOM
      1 PG         46.1070   45.1820   56.9500 P.3       1 ATP         1.5496
      2 O1G        45.7790   46.3300   56.0520 O.2       1 ATP        -0.8494
      3 O2G        47.3820   44.4970   56.6260 O.3       1 ATP        -0.8494
      4 O3G        45.9720   45.5300   58.3750 O.3       1 ATP        -0.7845
      5 PB         43.9110   43.7400   55.6550 P.3       1 ATP         1.9068
      6 O1B        42.9750   42.7220   55.9860 O.2       1 ATP        -0.8942
      7 O2B        43.6030   44.7670   54.6780 O.3       1 ATP        -0.8166
      8 O3B        45.0410   44.0150   56.7380 O.3       1 ATP        -0.8194
      9 PA         45.2280   42.6690   53.2570 P.3       1 ATP         1.5903
     10 O1A        46.3800   43.3960   52.7880 O.2       1 ATP        -0.8519
     11 O2A        44.1830   42.1900   52.3510 O.3       1 ATP        -0.8519
     12 O3A        44.9170   42.7160   54.7890 O.3       1 ATP        -0.8093
     13 O5'        46.1720   41.5680   53.3020 O.3       1 ATP        -0.5649
     14 C5'        46.6090   40.4220   53.5420 C.3       1 ATP         0.1979
     15 C4'        46.5200   38.9890   53.3640 C.3       1 ATP         0.1179
     16 O4'        46.7850   38.9080   51.9480 O.3       1 ATP        -0.3878
     17 C3'        47.8080   38.8740   54.1120 C.3       1 ATP         0.1185
     18 O3'        47.7130   38.3570   55.4230 O.3       1 ATP        -0.5544
     19 C2'        48.7190   38.1160   53.1390 C.3       1 ATP         0.0542
     20 O2'        48.6320   36.7370   53.4250 O.3       1 ATP        -0.5831
     21 C1'        48.1330   38.4090   51.7210 C.3       1 ATP         0.2222
     22 N9         48.8460   39.4640   50.9860 N.pl3     1 ATP        -0.1887
     23 C8         48.6160   40.8420   50.9450 C.ar      1 ATP         0.4447
     24 N7         49.4250   41.4890   50.1650 N.ar      1 ATP        -0.6159
     25 C5         50.2320   40.4700   49.6640 C.ar      1 ATP         0.2195
     26 C6         51.3080   40.4660   48.7310 C.ar      1 ATP         0.6144
     27 N6         51.7210   41.5680   48.1290 N.2       1 ATP        -0.8160
     28 N1         51.9120   39.2740   48.4470 N.pl3     1 ATP        -0.8611
     29 C2         51.4930   38.1510   49.0290 C.ar      1 ATP         0.6141
     30 N3         50.4910   38.0160   49.9000 N.ar      1 ATP        -0.5913
     31 C4         49.8920   39.2530   50.1710 C.ar      1 ATP         0.0067
     32 HOG3       46.5992   46.3224   58.8095 H         1 ATP         0.4313
     33 HOB2       42.9452   45.6055   54.9502 H         1 ATP         0.4716
     34 H5'1       47.6492   40.3457   53.1926 H         1 ATP         0.0452
     35 H5'2       46.5714   40.2346   54.6253 H         1 ATP         0.0452
     36 H4'        45.6654   38.3452   53.6190 H         1 ATP         0.0998
     37 H3'        48.2020   39.8423   54.4542 H         1 ATP         0.0544
     38 HO3'       47.0751   38.8571   56.1666 H         1 ATP         0.3961
     39 H2'        49.7910   38.3380   53.2466 H         1 ATP         0.0499
     40 HO2'       49.0003   36.3505   54.3868 H         1 ATP         0.4045
     41 H1'        48.1676   37.5175   51.0776 H         1 ATP         0.0912
     42 H8         47.8360   41.3900   51.4990 H         1 ATP         0.1090
     43 HN61       52.4910   41.5650   47.4600 H         1 ATP         0.3694
     44 H2         52.0360   37.2290   48.7590 H         1 ATP         0.0371
     45 H45        52.7492   39.2376   47.7344 H         1 ATP         0.4283
@<TRIPOS>BOND
     1    1    2 2
     2    1    3 1
     3    1    4 1
     4    1    8 1
     5    4   32 1
     6    5    6 2
     7    5    7 1
     8    5    8 1
     9    5   12 1
    10    7   33 1
    11    9   10 2
    12    9   11 1
    13    9   12 1
    14    9   13 1
    15   13   14 1
    16   14   15 1
    17   14   34 1
    18   14   35 1
    19   15   16 1
    20   15   17 1
    21   15   36 1
    22   16   21 1
    23   17   18 1
    24   17   19 1
    25   17   37 1
    26   18   38 1
    27   19   20 1
    28   19   21 1
    29   19   39 1
    30   20   40 1
    31   21   22 1
    32   21   41 1
    33   22   23 ar
    34   22   31 ar
    35   23   24 ar
    36   23   42 1
    37   24   25 ar
    38   25   26 ar
    39   25   31 ar
    40   26   27 2
    41   26   28 ar
    42   27   43 1
    43   28   29 ar
    44   28   45 1
    45   29   30 ar
    46   29   44 1
    47   30   31 ar
@<TRIPOS>SUBSTRUCTURE
     1 ATP         1 GROUP   0 A     ****
@<TRIPOS>MOLECULE
[[[3,4-dihydroxy-5-(6-imino-1~{H}-purin-9-yl)tetrahydrofuran-2-yl]methoxy-oxido-phosphoryl]oxy-hydroxy-phosphoryl] hydrogen phosphate
   45    47     1     0     0
SMALL
USER_CHARGES

@<TRIPOS>ATOM
      1 PG         46.1070   45.1820   56.9500 P.3       1 ATP         1.5496
      2 O1G        45.7790   46.3300   56.0520 O.2       1 ATP        -0.8494
      3 O2G        47.3820   44.4970   56.6260 O.3       1 ATP        -0.8494
      4 O3G        45.9720   45.5300   58.3750 O.3       1 ATP        -0.7845
      5 PB         43.9110   43.7400   55.6550 P.3       1 ATP         1.9068
      6 O1B        42.9750   42.7220   55.9860 O.2       1 ATP        -0.8942
      7 O2B        43.6030   44.7670   54.6780 O.3       1 ATP        -0.8166
      8 O3B        45.0410   44.0150   56.7380 O.3       1 ATP        -0.8194
      9 PA         45.2280   42.6690   53.2570 P.3       1 ATP         1.5903
     10 O1A        46.3800   43.3960   52.7880 O.2       1 ATP        -0.8519
     11 O2A        44.1830   42.1900   52.3510 O.3       1 ATP        -0.8519
     12 O3A        44.9170   42.7160   54.7890 O.3       1 ATP        -0.8093
     13 O5'        46.1720   41.5680   53.3020 O.3       1 ATP        -0.5649
     14 C5'        46.6090   40.4220   53.5420 C.3       1 ATP         0.1979
     15 C4'        46.5200   38.9890   53.3640 C.3       1 ATP         0.1179
     16 O4'        46.7850   38.9080   51.9480 O.3       1 ATP        -0.3878
     17 C3'        47.8080   38.8740   54.1120 C.3       1 ATP         0.1185
     18 O3'        47.7130   38.3570   55.4230 O.3       1 ATP        -0.5544
     19 C2'        48.7190   38.1160   53.1390 C.3       1 ATP         0.0542
     20 O2'        48.6320   36.7370   53.4250 O.3       1 ATP        -0.5831
     21 C1'        48.1330   38.4090   51.7210 C.3       1 ATP         0.2222
     22 N9         48.8460   39.4640   50.9860 N.pl3     1 ATP        -0.1887
     23 C8         48.6160   40.8420   50.9450 C.ar      1 ATP         0.4447
     24 N7         49.4250   41.4890   50.1650 N.ar      1 ATP        -0.6159
     25 C5         50.2320   40.4700   49.6640 C.ar      1 ATP         0.2195
     26 C6         51.3080   40.4660   48.7310 C.ar      1 ATP         0.6144
     27 N6         51.7210   41.5680   48.1290 N.2       1 ATP        -0.8160
     28 N1         51.9120   39.2740   48.4470 N.pl3     1 ATP        -0.8611
     29 C2         51.4930   38.1510   49.0290 C.ar      1 ATP         0.6141
     30 N3         50.4910   38.0160   49.9000 N.ar      1 ATP        -0.5913
     31 C4         49.8920   39.2530   50.1710 C.ar      1 ATP         0.0067
     32 HOG3       46.5992   46.3224   58.8095 H         1 ATP         0.4313
     33 HOB2       42.9452   45.6055   54.9502 H         1 ATP         0.4716
     34 H5'1       47.6492   40.3457   53.1926 H         1 ATP         0.0452
     35 H5'2       46.5714   40.2346   54.6253 H         1 ATP         0.0452
     36 H4'        45.6654   38.3452   53.6190 H         1 ATP         0.0998
     37 H3'        48.2020   39.8423   54.4542 H         1 ATP         0.0544
     38 HO3'       47.0751   38.8571   56.1666 H         1 ATP         0.3961
     39 H2'        49.7910   38.3380   53.2466 H         1 ATP         0.0499
     40 HO2'       49.0003   36.3505   54.3868 H         1 ATP         0.4045
     41 H1'        48.1676   37.5175   51.0776 H         1 ATP         0.0912
     42 H8         47.8360   41.3900   51.4990 H         1 ATP         0.1090
     43 HN62       51.9400   42.2520   48.8520 H         1 ATP         0.3694
     44 H2         52.0360   37.2290   48.7590 H         1 ATP         0.0371
     45 H45        52.7492   39.2376   47.7344 H         1 ATP         0.4283
@<TRIPOS>BOND
     1    1    2 2
     2    1    3 1
     3    1    4 1
     4    1    8 1
     5    4   32 1
     6    5    6 2
     7    5    7 1
     8    5    8 1
     9    5   12 1
    10    7   33 1
    11    9   10 2
    12    9   11 1
    13    9   12 1
    14    9   13 1
    15   13   14 1
    16   14   15 1
    17   14   34 1
    18   14   35 1
    19   15   16 1
    20   15   17 1
    21   15   36 1
    22   16   21 1
    23   17   18 1
    24   17   19 1
    25   17   37 1
    26   18   38 1
    27   19   20 1
    28   19   21 1
    29   19   39 1
    30   20   40 1
    31   21   22 1
    32   21   41 1
    33   22   23 ar
    34   22   31 ar
    35   23   24 ar
    36   23   42 1
    37   24   25 ar
    38   25   26 ar
    39   25   31 ar
    40   26   27 2
    41   26   28 ar
    42   27   43 1
    43   28   29 ar
    44   28   45 1
    45   29   30 ar
    46   29   44 1
    47   30   31 ar
@<TRIPOS>SUBSTRUCTURE
     1 ATP         1 GROUP   0 A     ****
