@<TRIPOS>MOLECULE
[[[3,4-dihydroxy-5-(6-imino-1~{H}-purin-9-yl)tetrahydrofuran-2-yl]methoxy-oxido-phosphoryl]oxy-oxido-phosphoryl] hydrogen phosphate
   44    46     1     0     0
SMALL
USER_CHARGES

@<TRIPOS>ATOM
      1 PG         -5.5241   -1.9806    2.8178 P.3       1 ATP         1.5257
      2 O1G        -4.6390   -3.0606    3.3990 O.co2     1 ATP        -0.8737
      3 O2G        -6.2784   -2.2054    1.5262 O.co2     1 ATP        -0.8737
      4 O3G        -6.5873   -1.5090    3.9638 O.3       1 ATP        -0.7971
      5 PB         -5.1531    0.9035    2.2813 P.3       1 ATP         1.6824
      6 O1B        -5.5746    0.8934    0.8289 O.co2     1 ATP        -0.8925
      7 O2B        -6.0735    1.4284    3.3605 O.co2     1 ATP        -0.8925
      8 O3B        -4.6647   -0.5986    2.6949 O.3       1 ATP        -0.8047
      9 PA         -3.3347    3.2338    2.1468 P.3       1 ATP         1.5908
     10 O1A        -4.0314    4.0802    3.1901 O.co2     1 ATP        -0.8932
     11 O2A        -3.5037    3.5289    0.6724 O.co2     1 ATP        -0.8932
     12 O3A        -3.7146    1.6655    2.4035 O.3       1 ATP        -0.8088
     13 O5'        -1.7336    3.1724    2.4750 O.3       1 ATP        -0.5646
     14 C5'        -0.8811    2.4285    1.6206 C.3       1 ATP         0.2204
     15 C4'        -0.1994    1.3333    2.4288 C.3       1 ATP         0.0965
     16 O4'        -1.1285    0.2356    2.5840 O.3       1 ATP        -0.3907
     17 C3'         1.0324    0.7610    1.7344 C.3       1 ATP         0.0763
     18 O3'         1.9175    0.2377    2.7247 O.3       1 ATP        -0.5884
     19 C2'         0.4468   -0.3802    0.9263 C.3       1 ATP         0.0784
     20 O2'         1.3993   -1.3703    0.5961 O.3       1 ATP        -0.6085
     21 C1'        -0.6159   -0.9100    1.8769 C.3       1 ATP         0.2186
     22 N9         -1.7127   -1.6108    1.2130 N.pl3     1 ATP        -0.1699
     23 C8         -2.5485   -1.0808    0.2609 C.ar      1 ATP         0.4438
     24 N7         -3.4476   -1.9486   -0.1593 N.2       1 ATP        -0.6280
     25 C5         -3.1762   -3.0816    0.5530 C.ar      1 ATP         0.2109
     26 C6         -3.8510   -4.3579    0.5006 C.ar      1 ATP         0.6180
     27 N6         -4.8468   -4.5293   -0.2961 N.2       1 ATP        -0.8319
     28 N1         -3.2499   -5.2342    1.3937 N.pl3     1 ATP        -0.8664
     29 C2         -2.1646   -4.9275    2.2116 C.ar      1 ATP         0.5952
     30 N3         -1.5382   -3.7840    2.2778 N.2       1 ATP        -0.5599
     31 C4         -2.1054   -2.9018    1.4120 C.ar      1 ATP         0.0076
     32 HOG3       -7.2356   -0.8079    3.7390 H         1 ATP         0.4101
     33 H5'1       -1.4800    1.9927    0.8146 H         1 ATP         0.0364
     34 H5'2       -0.1367    3.1040    1.1872 H         1 ATP         0.0364
     35 H4'         0.0403    1.7078    3.4343 H         1 ATP         0.0945
     36 H3'         1.5907    1.4859    1.1353 H         1 ATP         0.0703
     37 HO3'        2.6839   -0.1150    2.2479 H         1 ATP         0.4099
     38 H2'        -0.0017    0.0018    0.0005 H         1 ATP         0.0676
     39 HO2'        2.0953   -0.9375    0.0709 H         1 ATP         0.4291
     40 H1'        -0.1998   -1.6319    2.6178 H         1 ATP         0.0950
     41 H8         -2.4515   -0.0599   -0.0829 H         1 ATP         0.1135
     42 HN62       -5.1990   -5.4882   -0.2005 H         1 ATP         0.3588
     43 H2         -1.8555   -5.7783    2.8388 H         1 ATP         0.0302
     44 H44        -3.6312   -6.1750    1.4526 H         1 ATP         0.4215
@<TRIPOS>BOND
     1    1    2 2
     2    1    3 1
     3    1    4 1
     4    1    8 1
     5    4   32 1
     6    5    6 2
     7    5    7 1
     8    5    8 1
     9    5   12 1
    10    9   10 2
    11    9   11 1
    12    9   12 1
    13    9   13 1
    14   13   14 1
    15   14   15 1
    16   14   33 1
    17   14   34 1
    18   15   16 1
    19   15   17 1
    20   15   35 1
    21   16   21 1
    22   17   18 1
    23   17   19 1
    24   17   36 1
    25   18   37 1
    26   19   20 1
    27   19   21 1
    28   19   38 1
    29   20   39 1
    30   21   22 1
    31   21   40 1
    32   22   23 ar
    33   22   31 ar
    34   23   24 ar
    35   23   41 1
    36   24   25 ar
    37   25   26 ar
    38   25   31 ar
    39   26   27 2
    40   26   28 ar
    41   27   42 1
    42   28   29 ar
    43   28   44 1
    44   29   30 ar
    45   29   43 1
    46   30   31 ar
@<TRIPOS>SUBSTRUCTURE
     1 ATP         1 GROUP 0 A     ****
@<TRIPOS>MOLECULE
[[[3,4-dihydroxy-5-(6-imino-1~{H}-purin-9-yl)tetrahydrofuran-2-yl]methoxy-oxido-phosphoryl]oxy-oxido-phosphoryl] hydrogen phosphate
   44    46     1     0     0
SMALL
USER_CHARGES

@<TRIPOS>ATOM
      1 PG         -6.7223    0.7685   -0.2212 P.3       1 ATP         1.5257
      2 O1G        -7.9564    1.4932    0.2680 O.co2     1 ATP        -0.8737
      3 O2G        -6.7182   -0.7350   -0.3864 O.co2     1 ATP        -0.8737
      4 O3G        -6.2467    1.4460   -1.6286 O.3       1 ATP        -0.7971
      5 PB         -5.1531    0.9035    2.2813 P.3       1 ATP         1.6824
      6 O1B        -6.1697    1.6501    3.1159 O.co2     1 ATP        -0.8925
      7 O2B        -4.9320   -0.5821    2.4600 O.co2     1 ATP        -0.8925
      8 O3B        -5.4497    1.2025    0.7039 O.3       1 ATP        -0.8047
      9 PA         -3.3347    3.2338    2.1468 P.3       1 ATP         1.5908
     10 O1A        -4.0314    4.0802    3.1901 O.co2     1 ATP        -0.8932
     11 O2A        -3.5037    3.5289    0.6724 O.co2     1 ATP        -0.8932
     12 O3A        -3.7146    1.6655    2.4035 O.3       1 ATP        -0.8088
     13 O5'        -1.7336    3.1724    2.4750 O.3       1 ATP        -0.5646
     14 C5'        -0.8811    2.4285    1.6206 C.3       1 ATP         0.2204
     15 C4'        -0.1994    1.3333    2.4288 C.3       1 ATP         0.0965
     16 O4'        -1.1285    0.2356    2.5840 O.3       1 ATP        -0.3907
     17 C3'         1.0324    0.7610    1.7344 C.3       1 ATP         0.0763
     18 O3'         1.9175    0.2377    2.7247 O.3       1 ATP        -0.5884
     19 C2'         0.4468   -0.3802    0.9263 C.3       1 ATP         0.0784
     20 O2'         1.3993   -1.3703    0.5961 O.3       1 ATP        -0.6085
     21 C1'        -0.6159   -0.9100    1.8769 C.3       1 ATP         0.2186
     22 N9         -1.7127   -1.6108    1.2130 N.pl3     1 ATP        -0.1699
     23 C8         -2.5485   -1.0808    0.2609 C.ar      1 ATP         0.4438
     24 N7         -3.4476   -1.9486   -0.1593 N.2       1 ATP        -0.6280
     25 C5         -3.1762   -3.0816    0.5530 C.ar      1 ATP         0.2109
     26 C6         -3.8510   -4.3579    0.5006 C.ar      1 ATP         0.6180
     27 N6         -4.8468   -4.5293   -0.2961 N.2       1 ATP        -0.8319
     28 N1         -3.2499   -5.2342    1.3937 N.pl3     1 ATP        -0.8664
     29 C2         -2.1646   -4.9275    2.2116 C.ar      1 ATP         0.5952
     30 N3         -1.5382   -3.7840    2.2778 N.2       1 ATP        -0.5599
     31 C4         -2.1054   -2.9018    1.4120 C.ar      1 ATP         0.0076
     32 HOG3       -5.4525    1.0838   -2.0762 H         1 ATP         0.4101
     33 H5'1       -1.4800    1.9927    0.8146 H         1 ATP         0.0364
     34 H5'2       -0.1367    3.1040    1.1872 H         1 ATP         0.0364
     35 H4'         0.0403    1.7078    3.4343 H         1 ATP         0.0945
     36 H3'         1.5907    1.4859    1.1353 H         1 ATP         0.0703
     37 HO3'        2.6839   -0.1150    2.2479 H         1 ATP         0.4099
     38 H2'        -0.0017    0.0018    0.0005 H         1 ATP         0.0676
     39 HO2'        2.0953   -0.9375    0.0709 H         1 ATP         0.4291
     40 H1'        -0.1998   -1.6319    2.6178 H         1 ATP         0.0950
     41 H8         -2.4515   -0.0599   -0.0829 H         1 ATP         0.1135
     42 HN62       -5.1990   -5.4882   -0.2005 H         1 ATP         0.3588
     43 H2         -1.8555   -5.7783    2.8388 H         1 ATP         0.0302
     44 H44        -3.6312   -6.1750    1.4526 H         1 ATP         0.4215
@<TRIPOS>BOND
     1    1    2 2
     2    1    3 1
     3    1    4 1
     4    1    8 1
     5    4   32 1
     6    5    6 2
     7    5    7 1
     8    5    8 1
     9    5   12 1
    10    9   10 2
    11    9   11 1
    12    9   12 1
    13    9   13 1
    14   13   14 1
    15   14   15 1
    16   14   33 1
    17   14   34 1
    18   15   16 1
    19   15   17 1
    20   15   35 1
    21   16   21 1
    22   17   18 1
    23   17   19 1
    24   17   36 1
    25   18   37 1
    26   19   20 1
    27   19   21 1
    28   19   38 1
    29   20   39 1
    30   21   22 1
    31   21   40 1
    32   22   23 ar
    33   22   31 ar
    34   23   24 ar
    35   23   41 1
    36   24   25 ar
    37   25   26 ar
    38   25   31 ar
    39   26   27 2
    40   26   28 ar
    41   27   42 1
    42   28   29 ar
    43   28   44 1
    44   29   30 ar
    45   29   43 1
    46   30   31 ar
@<TRIPOS>SUBSTRUCTURE
     1 ATP         1 GROUP 0 A     ****
@<TRIPOS>MOLECULE
[[[3,4-dihydroxy-5-(6-imino-1~{H}-purin-9-yl)tetrahydrofuran-2-yl]methoxy-oxido-phosphoryl]oxy-oxido-phosphoryl] hydrogen phosphate
   44    46     1     0     0
SMALL
USER_CHARGES

@<TRIPOS>ATOM
      1 PG         -5.3253    2.0517   -3.1268 P.3       1 ATP         1.5257
      2 O1G        -4.7435    2.8999   -4.2357 O.co2     1 ATP        -0.8737
      3 O2G        -6.8132    2.0414   -2.8553 O.co2     1 ATP        -0.8737
      4 O3G        -4.8256    0.5114   -3.3354 O.3       1 ATP        -0.7971
      5 PB         -4.5113    3.7495   -0.8468 P.3       1 ATP         1.6824
      6 O1B        -3.8138    4.8314   -1.6409 O.co2     1 ATP        -0.8925
      7 O2B        -5.8878    3.9720   -0.2608 O.co2     1 ATP        -0.8925
      8 O3B        -4.5362    2.3808   -1.7366 O.3       1 ATP        -0.8047
      9 PA         -2.9646    4.0418    1.6587 P.3       1 ATP         1.5908
     10 O1A        -4.1353    4.3308    2.5732 O.co2     1 ATP        -0.8932
     11 O2A        -2.0512    5.1559    1.1958 O.co2     1 ATP        -0.8932
     12 O3A        -3.5115    3.2453    0.3410 O.3       1 ATP        -0.8088
     13 O5'        -2.0401    2.8620    2.3128 O.3       1 ATP        -0.5646
     14 C5'        -0.8811    2.4285    1.6206 C.3       1 ATP         0.2204
     15 C4'        -0.1994    1.3333    2.4288 C.3       1 ATP         0.0965
     16 O4'        -1.1285    0.2356    2.5840 O.3       1 ATP        -0.3907
     17 C3'         1.0324    0.7610    1.7344 C.3       1 ATP         0.0763
     18 O3'         1.9175    0.2377    2.7247 O.3       1 ATP        -0.5884
     19 C2'         0.4468   -0.3802    0.9263 C.3       1 ATP         0.0784
     20 O2'         1.3993   -1.3703    0.5961 O.3       1 ATP        -0.6085
     21 C1'        -0.6159   -0.9100    1.8769 C.3       1 ATP         0.2186
     22 N9         -1.7127   -1.6108    1.2130 N.pl3     1 ATP        -0.1699
     23 C8         -2.8662   -1.0361    0.7388 C.ar      1 ATP         0.4438
     24 N7         -3.6774   -1.9166    0.1867 N.2       1 ATP        -0.6280
     25 C5         -3.0159   -3.1045    0.3122 C.ar      1 ATP         0.2109
     26 C6         -3.4377   -4.4169   -0.1199 C.ar      1 ATP         0.6180
     27 N6         -4.5720   -4.5691   -0.7080 N.2       1 ATP        -0.8319
     28 N1         -2.4600   -5.3463    0.2071 N.pl3     1 ATP        -0.8664
     29 C2         -1.2595   -5.0554    0.8515 C.ar      1 ATP         0.5952
     30 N3         -0.8555   -3.8803    1.2516 N.2       1 ATP        -0.5599
     31 C4         -1.7946   -2.9457    0.9448 C.ar      1 ATP         0.0076
     32 HOG3       -5.1212   -0.1667   -2.6911 H         1 ATP         0.4101
     33 H5'1       -1.1767    2.0502    0.6368 H         1 ATP         0.0364
     34 H5'2       -0.2080    3.2814    1.4876 H         1 ATP         0.0364
     35 H4'         0.0403    1.7078    3.4343 H         1 ATP         0.0945
     36 H3'         1.5907    1.4859    1.1353 H         1 ATP         0.0703
     37 HO3'        2.6839   -0.1150    2.2479 H         1 ATP         0.4099
     38 H2'        -0.0017    0.0018    0.0005 H         1 ATP         0.0676
     39 HO2'        2.0953   -0.9375    0.0709 H         1 ATP         0.4291
     40 H1'        -0.1998   -1.6319    2.6178 H         1 ATP         0.0950
     41 H8         -3.0558    0.0252    0.8256 H         1 ATP         0.1135
     42 HN62       -4.7047   -5.5592   -0.9421 H         1 ATP         0.3588
     43 H2         -0.6372   -5.9505    1.0077 H         1 ATP         0.0302
     44 H44        -2.6338   -6.3155   -0.0469 H         1 ATP         0.4215
@<TRIPOS>BOND
     1    1    2 2
     2    1    3 1
     3    1    4 1
     4    1    8 1
     5    4   32 1
     6    5    6 2
     7    5    7 1
     8    5    8 1
     9    5   12 1
    10    9   10 2
    11    9   11 1
    12    9   12 1
    13    9   13 1
    14   13   14 1
    15   14   15 1
    16   14   33 1
    17   14   34 1
    18   15   16 1
    19   15   17 1
    20   15   35 1
    21   16   21 1
    22   17   18 1
    23   17   19 1
    24   17   36 1
    25   18   37 1
    26   19   20 1
    27   19   21 1
    28   19   38 1
    29   20   39 1
    30   21   22 1
    31   21   40 1
    32   22   23 ar
    33   22   31 ar
    34   23   24 ar
    35   23   41 1
    36   24   25 ar
    37   25   26 ar
    38   25   31 ar
    39   26   27 2
    40   26   28 ar
    41   27   42 1
    42   28   29 ar
    43   28   44 1
    44   29   30 ar
    45   29   43 1
    46   30   31 ar
@<TRIPOS>SUBSTRUCTURE
     1 ATP         1 GROUP 0 A     ****
@<TRIPOS>MOLECULE
[[[3,4-dihydroxy-5-(6-imino-1~{H}-purin-9-yl)tetrahydrofuran-2-yl]methoxy-oxido-phosphoryl]oxy-oxido-phosphoryl] hydrogen phosphate
   44    46     1     0     0
SMALL
USER_CHARGES

@<TRIPOS>ATOM
      1 PG          0.7033    7.1567    1.7180 P.3       1 ATP         1.5257
      2 O1G         0.2216    6.6923    0.3617 O.co2     1 ATP        -0.8737
      3 O2G         1.8865    6.4968    2.3905 O.co2     1 ATP        -0.8737
      4 O3G         0.9770    8.7649    1.6485 O.3       1 ATP        -0.7971
      5 PB         -1.4295    5.9213    3.3516 P.3       1 ATP         1.6824
      6 O1B        -0.4815    4.9134    3.9621 O.co2     1 ATP        -0.8925
      7 O2B        -2.5936    6.4792    4.1397 O.co2     1 ATP        -0.8925
      8 O3B        -0.5571    7.1657    2.7548 O.3       1 ATP        -0.8047
      9 PA         -2.9646    4.0418    1.6587 P.3       1 ATP         1.5908
     10 O1A        -3.0699    3.8298    0.1639 O.co2     1 ATP        -0.8932
     11 O2A        -4.2078    4.1934    2.5079 O.co2     1 ATP        -0.8932
     12 O3A        -1.9910    5.3235    1.9402 O.3       1 ATP        -0.8088
     13 O5'        -2.0401    2.8620    2.3128 O.3       1 ATP        -0.5646
     14 C5'        -0.8811    2.4285    1.6206 C.3       1 ATP         0.2204
     15 C4'        -0.1994    1.3333    2.4288 C.3       1 ATP         0.0965
     16 O4'        -1.1285    0.2356    2.5840 O.3       1 ATP        -0.3907
     17 C3'         1.0324    0.7610    1.7344 C.3       1 ATP         0.0763
     18 O3'         1.9175    0.2377    2.7247 O.3       1 ATP        -0.5884
     19 C2'         0.4468   -0.3802    0.9263 C.3       1 ATP         0.0784
     20 O2'         1.3993   -1.3703    0.5961 O.3       1 ATP        -0.6085
     21 C1'        -0.6159   -0.9100    1.8769 C.3       1 ATP         0.2186
     22 N9         -1.7127   -1.6108    1.2130 N.pl3     1 ATP        -0.1699
     23 C8         -2.8662   -1.0361    0.7388 C.ar      1 ATP         0.4438
     24 N7         -3.6774   -1.9166    0.1867 N.2       1 ATP        -0.6280
     25 C5         -3.0159   -3.1045    0.3122 C.ar      1 ATP         0.2109
     26 C6         -3.4377   -4.4169   -0.1199 C.ar      1 ATP         0.6180
     27 N6         -4.5720   -4.5691   -0.7080 N.2       1 ATP        -0.8319
     28 N1         -2.4600   -5.3463    0.2071 N.pl3     1 ATP        -0.8664
     29 C2         -1.2595   -5.0554    0.8515 C.ar      1 ATP         0.5952
     30 N3         -0.8555   -3.8803    1.2516 N.2       1 ATP        -0.5599
     31 C4         -1.7946   -2.9457    0.9448 C.ar      1 ATP         0.0076
     32 HOG3        1.2966    9.2195    2.4569 H         1 ATP         0.4101
     33 H5'1       -1.1767    2.0502    0.6368 H         1 ATP         0.0364
     34 H5'2       -0.2080    3.2814    1.4876 H         1 ATP         0.0364
     35 H4'         0.0403    1.7078    3.4343 H         1 ATP         0.0945
     36 H3'         1.5907    1.4859    1.1353 H         1 ATP         0.0703
     37 HO3'        2.6839   -0.1150    2.2479 H         1 ATP         0.4099
     38 H2'        -0.0017    0.0018    0.0005 H         1 ATP         0.0676
     39 HO2'        2.0953   -0.9375    0.0709 H         1 ATP         0.4291
     40 H1'        -0.1998   -1.6319    2.6178 H         1 ATP         0.0950
     41 H8         -3.0558    0.0252    0.8256 H         1 ATP         0.1135
     42 HN62       -4.7047   -5.5592   -0.9421 H         1 ATP         0.3588
     43 H2         -0.6372   -5.9505    1.0077 H         1 ATP         0.0302
     44 H44        -2.6338   -6.3155   -0.0469 H         1 ATP         0.4215
@<TRIPOS>BOND
     1    1    2 2
     2    1    3 1
     3    1    4 1
     4    1    8 1
     5    4   32 1
     6    5    6 2
     7    5    7 1
     8    5    8 1
     9    5   12 1
    10    9   10 2
    11    9   11 1
    12    9   12 1
    13    9   13 1
    14   13   14 1
    15   14   15 1
    16   14   33 1
    17   14   34 1
    18   15   16 1
    19   15   17 1
    20   15   35 1
    21   16   21 1
    22   17   18 1
    23   17   19 1
    24   17   36 1
    25   18   37 1
    26   19   20 1
    27   19   21 1
    28   19   38 1
    29   20   39 1
    30   21   22 1
    31   21   40 1
    32   22   23 ar
    33   22   31 ar
    34   23   24 ar
    35   23   41 1
    36   24   25 ar
    37   25   26 ar
    38   25   31 ar
    39   26   27 2
    40   26   28 ar
    41   27   42 1
    42   28   29 ar
    43   28   44 1
    44   29   30 ar
    45   29   43 1
    46   30   31 ar
@<TRIPOS>SUBSTRUCTURE
     1 ATP         1 GROUP 0 A     ****
@<TRIPOS>MOLECULE
[[[3,4-dihydroxy-5-(6-imino-1~{H}-purin-9-yl)tetrahydrofuran-2-yl]methoxy-oxido-phosphoryl]oxy-oxido-phosphoryl] hydrogen phosphate
   44    46     1     0     0
SMALL
USER_CHARGES

@<TRIPOS>ATOM
      1 PG         -7.5300    1.6354    3.8807 P.3       1 ATP         1.5257
      2 O1G        -7.7040    0.3209    4.6081 O.co2     1 ATP        -0.8737
      3 O2G        -8.4406    2.0160    2.7345 O.co2     1 ATP        -0.8737
      4 O3G        -7.5479    2.8427    4.9798 O.3       1 ATP        -0.7971
      5 PB         -5.1531    0.9035    2.2813 P.3       1 ATP         1.6824
      6 O1B        -4.9966   -0.5121    2.7904 O.co2     1 ATP        -0.8925
      7 O2B        -5.7365    1.1844    0.9145 O.co2     1 ATP        -0.8925
      8 O3B        -5.9789    1.7705    3.3913 O.3       1 ATP        -0.8047
      9 PA         -3.3347    3.2338    2.1468 P.3       1 ATP         1.5908
     10 O1A        -4.0314    4.0802    3.1901 O.co2     1 ATP        -0.8932
     11 O2A        -3.5037    3.5289    0.6724 O.co2     1 ATP        -0.8932
     12 O3A        -3.7146    1.6655    2.4035 O.3       1 ATP        -0.8088
     13 O5'        -1.7336    3.1724    2.4750 O.3       1 ATP        -0.5646
     14 C5'        -0.8811    2.4285    1.6206 C.3       1 ATP         0.2204
     15 C4'        -0.1994    1.3333    2.4288 C.3       1 ATP         0.0965
     16 O4'        -1.1285    0.2356    2.5840 O.3       1 ATP        -0.3907
     17 C3'         1.0324    0.7610    1.7344 C.3       1 ATP         0.0763
     18 O3'         1.9175    0.2377    2.7247 O.3       1 ATP        -0.5884
     19 C2'         0.4468   -0.3802    0.9263 C.3       1 ATP         0.0784
     20 O2'         1.3993   -1.3703    0.5961 O.3       1 ATP        -0.6085
     21 C1'        -0.6159   -0.9100    1.8769 C.3       1 ATP         0.2186
     22 N9         -1.7127   -1.6108    1.2130 N.pl3     1 ATP        -0.1699
     23 C8         -2.5485   -1.0808    0.2609 C.ar      1 ATP         0.4438
     24 N7         -3.4476   -1.9486   -0.1593 N.2       1 ATP        -0.6280
     25 C5         -3.1762   -3.0816    0.5530 C.ar      1 ATP         0.2109
     26 C6         -3.8510   -4.3579    0.5006 C.ar      1 ATP         0.6180
     27 N6         -4.8468   -4.5293   -0.2961 N.2       1 ATP        -0.8319
     28 N1         -3.2499   -5.2342    1.3937 N.pl3     1 ATP        -0.8664
     29 C2         -2.1646   -4.9275    2.2116 C.ar      1 ATP         0.5952
     30 N3         -1.5382   -3.7840    2.2778 N.2       1 ATP        -0.5599
     31 C4         -2.1054   -2.9018    1.4120 C.ar      1 ATP         0.0076
     32 HOG3       -7.4451    3.7650    4.6620 H         1 ATP         0.4101
     33 H5'1       -1.4800    1.9927    0.8146 H         1 ATP         0.0364
     34 H5'2       -0.1367    3.1040    1.1872 H         1 ATP         0.0364
     35 H4'         0.0403    1.7078    3.4343 H         1 ATP         0.0945
     36 H3'         1.5907    1.4859    1.1353 H         1 ATP         0.0703
     37 HO3'        2.6839   -0.1150    2.2479 H         1 ATP         0.4099
     38 H2'        -0.0017    0.0018    0.0005 H         1 ATP         0.0676
     39 HO2'        2.0953   -0.9375    0.0709 H         1 ATP         0.4291
     40 H1'        -0.1998   -1.6319    2.6178 H         1 ATP         0.0950
     41 H8         -2.4515   -0.0599   -0.0829 H         1 ATP         0.1135
     42 HN62       -5.1990   -5.4882   -0.2005 H         1 ATP         0.3588
     43 H2         -1.8555   -5.7783    2.8388 H         1 ATP         0.0302
     44 H44        -3.6312   -6.1750    1.4526 H         1 ATP         0.4215
@<TRIPOS>BOND
     1    1    2 2
     2    1    3 1
     3    1    4 1
     4    1    8 1
     5    4   32 1
     6    5    6 2
     7    5    7 1
     8    5    8 1
     9    5   12 1
    10    9   10 2
    11    9   11 1
    12    9   12 1
    13    9   13 1
    14   13   14 1
    15   14   15 1
    16   14   33 1
    17   14   34 1
    18   15   16 1
    19   15   17 1
    20   15   35 1
    21   16   21 1
    22   17   18 1
    23   17   19 1
    24   17   36 1
    25   18   37 1
    26   19   20 1
    27   19   21 1
    28   19   38 1
    29   20   39 1
    30   21   22 1
    31   21   40 1
    32   22   23 ar
    33   22   31 ar
    34   23   24 ar
    35   23   41 1
    36   24   25 ar
    37   25   26 ar
    38   25   31 ar
    39   26   27 2
    40   26   28 ar
    41   27   42 1
    42   28   29 ar
    43   28   44 1
    44   29   30 ar
    45   29   43 1
    46   30   31 ar
@<TRIPOS>SUBSTRUCTURE
     1 ATP         1 GROUP 0 A     ****
@<TRIPOS>MOLECULE
[[[3,4-dihydroxy-5-(6-imino-1~{H}-purin-9-yl)tetrahydrofuran-2-yl]methoxy-oxido-phosphoryl]oxy-oxido-phosphoryl] hydrogen phosphate
   44    46     1     0     0
SMALL
USER_CHARGES

@<TRIPOS>ATOM
      1 PG         -3.3116    1.5846   -2.4646 P.3       1 ATP         1.5257
      2 O1G        -2.3946    1.0167   -1.4045 O.co2     1 ATP        -0.8737
      3 O2G        -2.7670    2.4421   -3.5852 O.co2     1 ATP        -0.8737
      4 O3G        -4.1690    0.3590   -3.1195 O.3       1 ATP        -0.7971
      5 PB         -4.5113    3.7495   -0.8468 P.3       1 ATP         1.6824
      6 O1B        -3.8138    4.8314   -1.6409 O.co2     1 ATP        -0.8925
      7 O2B        -5.8878    3.9720   -0.2608 O.co2     1 ATP        -0.8925
      8 O3B        -4.5362    2.3808   -1.7366 O.3       1 ATP        -0.8047
      9 PA         -2.9646    4.0418    1.6587 P.3       1 ATP         1.5908
     10 O1A        -4.1353    4.3308    2.5732 O.co2     1 ATP        -0.8932
     11 O2A        -2.0512    5.1559    1.1958 O.co2     1 ATP        -0.8932
     12 O3A        -3.5115    3.2453    0.3410 O.3       1 ATP        -0.8088
     13 O5'        -2.0401    2.8620    2.3128 O.3       1 ATP        -0.5646
     14 C5'        -0.8811    2.4285    1.6206 C.3       1 ATP         0.2204
     15 C4'        -0.1994    1.3333    2.4288 C.3       1 ATP         0.0965
     16 O4'        -1.1285    0.2356    2.5840 O.3       1 ATP        -0.3907
     17 C3'         1.0324    0.7610    1.7344 C.3       1 ATP         0.0763
     18 O3'         1.9175    0.2377    2.7247 O.3       1 ATP        -0.5884
     19 C2'         0.4468   -0.3802    0.9263 C.3       1 ATP         0.0784
     20 O2'         1.3993   -1.3703    0.5961 O.3       1 ATP        -0.6085
     21 C1'        -0.6159   -0.9100    1.8769 C.3       1 ATP         0.2186
     22 N9         -1.7127   -1.6108    1.2130 N.pl3     1 ATP        -0.1699
     23 C8         -1.5982   -2.7455    0.4481 C.ar      1 ATP         0.4438
     24 N7         -2.7593   -3.1533   -0.0249 N.2       1 ATP        -0.6280
     25 C5         -3.6547   -2.2420    0.4573 C.ar      1 ATP         0.2109
     26 C6         -5.0842   -2.1942    0.2543 C.ar      1 ATP         0.6180
     27 N6         -5.6648   -3.0919   -0.4618 N.2       1 ATP        -0.8319
     28 N1         -5.6087   -1.0978    0.9248 N.pl3     1 ATP        -0.8664
     29 C2         -4.8689   -0.1873    1.6760 C.ar      1 ATP         0.5952
     30 N3         -3.5787   -0.2081    1.8745 N.2       1 ATP        -0.5599
     31 C4         -3.0344   -1.2737    1.2284 C.ar      1 ATP         0.0076
     32 HOG3       -4.8141    0.5672   -3.8286 H         1 ATP         0.4101
     33 H5'1       -1.1767    2.0502    0.6368 H         1 ATP         0.0364
     34 H5'2       -0.2080    3.2814    1.4876 H         1 ATP         0.0364
     35 H4'         0.0403    1.7078    3.4343 H         1 ATP         0.0945
     36 H3'         1.5907    1.4859    1.1353 H         1 ATP         0.0703
     37 HO3'        2.6839   -0.1150    2.2479 H         1 ATP         0.4099
     38 H2'        -0.0017    0.0018    0.0005 H         1 ATP         0.0676
     39 HO2'        2.0953   -0.9375    0.0709 H         1 ATP         0.4291
     40 H1'        -0.1998   -1.6319    2.6178 H         1 ATP         0.0950
     41 H8         -0.6448   -3.2254    0.2735 H         1 ATP         0.1135
     42 HN62       -6.6723   -2.9015   -0.4966 H         1 ATP         0.3588
     43 H2         -5.4961    0.6026    2.1183 H         1 ATP         0.0302
     44 H44        -6.6130   -0.9504    0.8642 H         1 ATP         0.4215
@<TRIPOS>BOND
     1    1    2 2
     2    1    3 1
     3    1    4 1
     4    1    8 1
     5    4   32 1
     6    5    6 2
     7    5    7 1
     8    5    8 1
     9    5   12 1
    10    9   10 2
    11    9   11 1
    12    9   12 1
    13    9   13 1
    14   13   14 1
    15   14   15 1
    16   14   33 1
    17   14   34 1
    18   15   16 1
    19   15   17 1
    20   15   35 1
    21   16   21 1
    22   17   18 1
    23   17   19 1
    24   17   36 1
    25   18   37 1
    26   19   20 1
    27   19   21 1
    28   19   38 1
    29   20   39 1
    30   21   22 1
    31   21   40 1
    32   22   23 ar
    33   22   31 ar
    34   23   24 ar
    35   23   41 1
    36   24   25 ar
    37   25   26 ar
    38   25   31 ar
    39   26   27 2
    40   26   28 ar
    41   27   42 1
    42   28   29 ar
    43   28   44 1
    44   29   30 ar
    45   29   43 1
    46   30   31 ar
@<TRIPOS>SUBSTRUCTURE
     1 ATP         1 GROUP 0 A     ****
@<TRIPOS>MOLECULE
[[[3,4-dihydroxy-5-(6-imino-1~{H}-purin-9-yl)tetrahydrofuran-2-yl]methoxy-oxido-phosphoryl]oxy-oxido-phosphoryl] hydrogen phosphate
   44    46     1     0     0
SMALL
USER_CHARGES

@<TRIPOS>ATOM
      1 PG         -3.9248    6.0515   -2.6076 P.3       1 ATP         1.5257
      2 O1G        -5.1081    6.9124   -2.2254 O.co2     1 ATP        -0.8737
      3 O2G        -3.8996    5.3043   -3.9224 O.co2     1 ATP        -0.8737
      4 O3G        -2.5693    6.9552   -2.4989 O.3       1 ATP        -0.7971
      5 PB         -4.5113    3.7495   -0.8468 P.3       1 ATP         1.6824
      6 O1B        -5.7748    4.2940   -0.2186 O.co2     1 ATP        -0.8925
      7 O2B        -4.5659    2.6849   -1.9197 O.co2     1 ATP        -0.8925
      8 O3B        -3.6187    5.0013   -1.3964 O.3       1 ATP        -0.8047
      9 PA         -2.9646    4.0418    1.6587 P.3       1 ATP         1.5908
     10 O1A        -4.1353    4.3308    2.5732 O.co2     1 ATP        -0.8932
     11 O2A        -2.0512    5.1559    1.1958 O.co2     1 ATP        -0.8932
     12 O3A        -3.5115    3.2453    0.3410 O.3       1 ATP        -0.8088
     13 O5'        -2.0401    2.8620    2.3128 O.3       1 ATP        -0.5646
     14 C5'        -0.8811    2.4285    1.6206 C.3       1 ATP         0.2204
     15 C4'        -0.1994    1.3333    2.4288 C.3       1 ATP         0.0965
     16 O4'        -1.1285    0.2356    2.5840 O.3       1 ATP        -0.3907
     17 C3'         1.0324    0.7610    1.7344 C.3       1 ATP         0.0763
     18 O3'         1.9175    0.2377    2.7247 O.3       1 ATP        -0.5884
     19 C2'         0.4468   -0.3802    0.9263 C.3       1 ATP         0.0784
     20 O2'         1.3993   -1.3703    0.5961 O.3       1 ATP        -0.6085
     21 C1'        -0.6159   -0.9100    1.8769 C.3       1 ATP         0.2186
     22 N9         -1.7127   -1.6108    1.2130 N.pl3     1 ATP        -0.1699
     23 C8         -2.8662   -1.0361    0.7388 C.ar      1 ATP         0.4438
     24 N7         -3.6774   -1.9166    0.1867 N.2       1 ATP        -0.6280
     25 C5         -3.0159   -3.1045    0.3122 C.ar      1 ATP         0.2109
     26 C6         -3.4377   -4.4169   -0.1199 C.ar      1 ATP         0.6180
     27 N6         -4.5720   -4.5691   -0.7080 N.2       1 ATP        -0.8319
     28 N1         -2.4600   -5.3463    0.2071 N.pl3     1 ATP        -0.8664
     29 C2         -1.2595   -5.0554    0.8515 C.ar      1 ATP         0.5952
     30 N3         -0.8555   -3.8803    1.2516 N.2       1 ATP        -0.5599
     31 C4         -1.7946   -2.9457    0.9448 C.ar      1 ATP         0.0076
     32 HOG3       -1.7097    6.5358   -2.7170 H         1 ATP         0.4101
     33 H5'1       -1.1767    2.0502    0.6368 H         1 ATP         0.0364
     34 H5'2       -0.2080    3.2814    1.4876 H         1 ATP         0.0364
     35 H4'         0.0403    1.7078    3.4343 H         1 ATP         0.0945
     36 H3'         1.5907    1.4859    1.1353 H         1 ATP         0.0703
     37 HO3'        2.6839   -0.1150    2.2479 H         1 ATP         0.4099
     38 H2'        -0.0017    0.0018    0.0005 H         1 ATP         0.0676
     39 HO2'        2.0953   -0.9375    0.0709 H         1 ATP         0.4291
     40 H1'        -0.1998   -1.6319    2.6178 H         1 ATP         0.0950
     41 H8         -3.0558    0.0252    0.8256 H         1 ATP         0.1135
     42 HN62       -4.7047   -5.5592   -0.9421 H         1 ATP         0.3588
     43 H2         -0.6372   -5.9505    1.0077 H         1 ATP         0.0302
     44 H44        -2.6338   -6.3155   -0.0469 H         1 ATP         0.4215
@<TRIPOS>BOND
     1    1    2 2
     2    1    3 1
     3    1    4 1
     4    1    8 1
     5    4   32 1
     6    5    6 2
     7    5    7 1
     8    5    8 1
     9    5   12 1
    10    9   10 2
    11    9   11 1
    12    9   12 1
    13    9   13 1
    14   13   14 1
    15   14   15 1
    16   14   33 1
    17   14   34 1
    18   15   16 1
    19   15   17 1
    20   15   35 1
    21   16   21 1
    22   17   18 1
    23   17   19 1
    24   17   36 1
    25   18   37 1
    26   19   20 1
    27   19   21 1
    28   19   38 1
    29   20   39 1
    30   21   22 1
    31   21   40 1
    32   22   23 ar
    33   22   31 ar
    34   23   24 ar
    35   23   41 1
    36   24   25 ar
    37   25   26 ar
    38   25   31 ar
    39   26   27 2
    40   26   28 ar
    41   27   42 1
    42   28   29 ar
    43   28   44 1
    44   29   30 ar
    45   29   43 1
    46   30   31 ar
@<TRIPOS>SUBSTRUCTURE
     1 ATP         1 GROUP 0 A     ****
@<TRIPOS>MOLECULE
[[[3,4-dihydroxy-5-(6-imino-1~{H}-purin-9-yl)tetrahydrofuran-2-yl]methoxy-oxido-phosphoryl]oxy-oxido-phosphoryl] hydrogen phosphate
   44    46     1     0     0
SMALL
USER_CHARGES

@<TRIPOS>ATOM
      1 PG          0.7033    7.1567    1.7180 P.3       1 ATP         1.5257
      2 O1G         0.2216    6.6923    0.3617 O.co2     1 ATP        -0.8737
      3 O2G         1.8865    6.4968    2.3905 O.co2     1 ATP        -0.8737
      4 O3G         0.9770    8.7649    1.6485 O.3       1 ATP        -0.7971
      5 PB         -1.4295    5.9213    3.3516 P.3       1 ATP         1.6824
      6 O1B        -0.4815    4.9134    3.9621 O.co2     1 ATP        -0.8925
      7 O2B        -2.5936    6.4792    4.1397 O.co2     1 ATP        -0.8925
      8 O3B        -0.5571    7.1657    2.7548 O.3       1 ATP        -0.8047
      9 PA         -2.9646    4.0418    1.6587 P.3       1 ATP         1.5908
     10 O1A        -3.0699    3.8298    0.1639 O.co2     1 ATP        -0.8932
     11 O2A        -4.2078    4.1934    2.5079 O.co2     1 ATP        -0.8932
     12 O3A        -1.9910    5.3235    1.9402 O.3       1 ATP        -0.8088
     13 O5'        -2.0401    2.8620    2.3128 O.3       1 ATP        -0.5646
     14 C5'        -0.8811    2.4285    1.6206 C.3       1 ATP         0.2204
     15 C4'        -0.1994    1.3333    2.4288 C.3       1 ATP         0.0965
     16 O4'        -1.1285    0.2356    2.5840 O.3       1 ATP        -0.3907
     17 C3'         1.0324    0.7610    1.7344 C.3       1 ATP         0.0763
     18 O3'         1.9175    0.2377    2.7247 O.3       1 ATP        -0.5884
     19 C2'         0.4468   -0.3802    0.9263 C.3       1 ATP         0.0784
     20 O2'         1.3993   -1.3703    0.5961 O.3       1 ATP        -0.6085
     21 C1'        -0.6159   -0.9100    1.8769 C.3       1 ATP         0.2186
     22 N9         -1.7127   -1.6108    1.2130 N.pl3     1 ATP        -0.1699
     23 C8         -1.7690   -2.9583    0.9549 C.ar      1 ATP         0.4438
     24 N7         -2.8827   -3.3076    0.3418 N.2       1 ATP        -0.6280
     25 C5         -3.5683   -2.1351    0.2017 C.ar      1 ATP         0.2109
     26 C6         -4.8617   -1.9185   -0.4044 C.ar      1 ATP         0.6180
     27 N6         -5.5166   -2.9094   -0.8993 N.2       1 ATP        -0.8319
     28 N1         -5.1837   -0.5701   -0.3344 N.pl3     1 ATP        -0.8664
     29 C2         -4.3821    0.4180    0.2330 C.ar      1 ATP         0.5952
     30 N3         -3.2117    0.2488    0.7860 N.2       1 ATP        -0.5599
     31 C4         -2.8672   -1.0657    0.7327 C.ar      1 ATP         0.0076
     32 HOG3        1.2966    9.2195    2.4569 H         1 ATP         0.4101
     33 H5'1       -1.1767    2.0502    0.6368 H         1 ATP         0.0364
     34 H5'2       -0.2080    3.2814    1.4876 H         1 ATP         0.0364
     35 H4'         0.0403    1.7078    3.4343 H         1 ATP         0.0945
     36 H3'         1.5907    1.4859    1.1353 H         1 ATP         0.0703
     37 HO3'        2.6839   -0.1150    2.2479 H         1 ATP         0.4099
     38 H2'        -0.0017    0.0018    0.0005 H         1 ATP         0.0676
     39 HO2'        2.0953   -0.9375    0.0709 H         1 ATP         0.4291
     40 H1'        -0.1998   -1.6319    2.6178 H         1 ATP         0.0950
     41 H8         -0.9697   -3.6300    1.2371 H         1 ATP         0.1135
     42 HN62       -6.4060   -2.5723   -1.2840 H         1 ATP         0.3588
     43 H2         -4.8409    1.4176    0.1757 H         1 ATP         0.0302
     44 H44        -6.0768   -0.2826   -0.7263 H         1 ATP         0.4215
@<TRIPOS>BOND
     1    1    2 2
     2    1    3 1
     3    1    4 1
     4    1    8 1
     5    4   32 1
     6    5    6 2
     7    5    7 1
     8    5    8 1
     9    5   12 1
    10    9   10 2
    11    9   11 1
    12    9   12 1
    13    9   13 1
    14   13   14 1
    15   14   15 1
    16   14   33 1
    17   14   34 1
    18   15   16 1
    19   15   17 1
    20   15   35 1
    21   16   21 1
    22   17   18 1
    23   17   19 1
    24   17   36 1
    25   18   37 1
    26   19   20 1
    27   19   21 1
    28   19   38 1
    29   20   39 1
    30   21   22 1
    31   21   40 1
    32   22   23 ar
    33   22   31 ar
    34   23   24 ar
    35   23   41 1
    36   24   25 ar
    37   25   26 ar
    38   25   31 ar
    39   26   27 2
    40   26   28 ar
    41   27   42 1
    42   28   29 ar
    43   28   44 1
    44   29   30 ar
    45   29   43 1
    46   30   31 ar
@<TRIPOS>SUBSTRUCTURE
     1 ATP         1 GROUP 0 A     ****
@<TRIPOS>MOLECULE
[[[3,4-dihydroxy-5-(6-imino-1~{H}-purin-9-yl)tetrahydrofuran-2-yl]methoxy-oxido-phosphoryl]oxy-oxido-phosphoryl] hydrogen phosphate
   44    46     1     0     0
SMALL
USER_CHARGES

@<TRIPOS>ATOM
      1 PG         -7.2845    4.6588   -0.3711 P.3       1 ATP         1.5257
      2 O1G        -7.9921    3.6101   -1.1999 O.co2     1 ATP        -0.8737
      3 O2G        -7.1271    6.0749   -0.8788 O.co2     1 ATP        -0.8737
      4 O3G        -7.9820    4.7115    1.1042 O.3       1 ATP        -0.7971
      5 PB         -4.5113    3.7495   -0.8468 P.3       1 ATP         1.6824
      6 O1B        -4.8362    2.5725   -1.7394 O.co2     1 ATP        -0.8925
      7 O2B        -3.9719    5.0414   -1.4193 O.co2     1 ATP        -0.8925
      8 O3B        -5.8198    4.0888    0.0688 O.3       1 ATP        -0.8047
      9 PA         -2.9646    4.0418    1.6587 P.3       1 ATP         1.5908
     10 O1A        -4.1353    4.3308    2.5732 O.co2     1 ATP        -0.8932
     11 O2A        -2.0512    5.1559    1.1958 O.co2     1 ATP        -0.8932
     12 O3A        -3.5115    3.2453    0.3410 O.3       1 ATP        -0.8088
     13 O5'        -2.0401    2.8620    2.3128 O.3       1 ATP        -0.5646
     14 C5'        -0.8811    2.4285    1.6206 C.3       1 ATP         0.2204
     15 C4'        -0.1994    1.3333    2.4288 C.3       1 ATP         0.0965
     16 O4'        -1.1285    0.2356    2.5840 O.3       1 ATP        -0.3907
     17 C3'         1.0324    0.7610    1.7344 C.3       1 ATP         0.0763
     18 O3'         1.9175    0.2377    2.7247 O.3       1 ATP        -0.5884
     19 C2'         0.4468   -0.3802    0.9263 C.3       1 ATP         0.0784
     20 O2'         1.3993   -1.3703    0.5961 O.3       1 ATP        -0.6085
     21 C1'        -0.6159   -0.9100    1.8769 C.3       1 ATP         0.2186
     22 N9         -1.7127   -1.6108    1.2130 N.pl3     1 ATP        -0.1699
     23 C8         -2.8662   -1.0361    0.7388 C.ar      1 ATP         0.4438
     24 N7         -3.6774   -1.9166    0.1867 N.2       1 ATP        -0.6280
     25 C5         -3.0159   -3.1045    0.3122 C.ar      1 ATP         0.2109
     26 C6         -3.4377   -4.4169   -0.1199 C.ar      1 ATP         0.6180
     27 N6         -4.5720   -4.5691   -0.7080 N.2       1 ATP        -0.8319
     28 N1         -2.4600   -5.3463    0.2071 N.pl3     1 ATP        -0.8664
     29 C2         -1.2595   -5.0554    0.8515 C.ar      1 ATP         0.5952
     30 N3         -0.8555   -3.8803    1.2516 N.2       1 ATP        -0.5599
     31 C4         -1.7946   -2.9457    0.9448 C.ar      1 ATP         0.0076
     32 HOG3       -7.6322    5.3482    1.7636 H         1 ATP         0.4101
     33 H5'1       -1.1767    2.0502    0.6368 H         1 ATP         0.0364
     34 H5'2       -0.2080    3.2814    1.4876 H         1 ATP         0.0364
     35 H4'         0.0403    1.7078    3.4343 H         1 ATP         0.0945
     36 H3'         1.5907    1.4859    1.1353 H         1 ATP         0.0703
     37 HO3'        2.6839   -0.1150    2.2479 H         1 ATP         0.4099
     38 H2'        -0.0017    0.0018    0.0005 H         1 ATP         0.0676
     39 HO2'        2.0953   -0.9375    0.0709 H         1 ATP         0.4291
     40 H1'        -0.1998   -1.6319    2.6178 H         1 ATP         0.0950
     41 H8         -3.0558    0.0252    0.8256 H         1 ATP         0.1135
     42 HN62       -4.7047   -5.5592   -0.9421 H         1 ATP         0.3588
     43 H2         -0.6372   -5.9505    1.0077 H         1 ATP         0.0302
     44 H44        -2.6338   -6.3155   -0.0469 H         1 ATP         0.4215
@<TRIPOS>BOND
     1    1    2 2
     2    1    3 1
     3    1    4 1
     4    1    8 1
     5    4   32 1
     6    5    6 2
     7    5    7 1
     8    5    8 1
     9    5   12 1
    10    9   10 2
    11    9   11 1
    12    9   12 1
    13    9   13 1
    14   13   14 1
    15   14   15 1
    16   14   33 1
    17   14   34 1
    18   15   16 1
    19   15   17 1
    20   15   35 1
    21   16   21 1
    22   17   18 1
    23   17   19 1
    24   17   36 1
    25   18   37 1
    26   19   20 1
    27   19   21 1
    28   19   38 1
    29   20   39 1
    30   21   22 1
    31   21   40 1
    32   22   23 ar
    33   22   31 ar
    34   23   24 ar
    35   23   41 1
    36   24   25 ar
    37   25   26 ar
    38   25   31 ar
    39   26   27 2
    40   26   28 ar
    41   27   42 1
    42   28   29 ar
    43   28   44 1
    44   29   30 ar
    45   29   43 1
    46   30   31 ar
@<TRIPOS>SUBSTRUCTURE
     1 ATP         1 GROUP 0 A     ****
@<TRIPOS>MOLECULE
[[[3,4-dihydroxy-5-(6-imino-1~{H}-purin-9-yl)tetrahydrofuran-2-yl]methoxy-oxido-phosphoryl]oxy-oxido-phosphoryl] hydrogen phosphate
   44    46     1     0     0
SMALL
USER_CHARGES

@<TRIPOS>ATOM
      1 PG          0.7355    7.1161    1.7917 P.3       1 ATP         1.5257
      2 O1G         1.0111    7.6019    0.3861 O.co2     1 ATP        -0.8737
      3 O2G         1.0189    5.6844    2.1888 O.co2     1 ATP        -0.8737
      4 O3G         1.4992    8.1061    2.8417 O.3       1 ATP        -0.7971
      5 PB         -2.2058    6.9006    1.5779 P.3       1 ATP         1.6824
      6 O1B        -3.3526    7.4364    2.4056 O.co2     1 ATP        -0.8925
      7 O2B        -2.1834    7.0605    0.0740 O.co2     1 ATP        -0.8925
      8 O3B        -0.8058    7.4794    2.1867 O.3       1 ATP        -0.8047
      9 PA         -2.9646    4.0418    1.6587 P.3       1 ATP         1.5908
     10 O1A        -3.0699    3.8298    0.1639 O.co2     1 ATP        -0.8932
     11 O2A        -4.2078    4.1934    2.5079 O.co2     1 ATP        -0.8932
     12 O3A        -1.9910    5.3235    1.9402 O.3       1 ATP        -0.8088
     13 O5'        -2.0401    2.8620    2.3128 O.3       1 ATP        -0.5646
     14 C5'        -0.8811    2.4285    1.6206 C.3       1 ATP         0.2204
     15 C4'        -0.1994    1.3333    2.4288 C.3       1 ATP         0.0965
     16 O4'        -1.1285    0.2356    2.5840 O.3       1 ATP        -0.3907
     17 C3'         1.0324    0.7610    1.7344 C.3       1 ATP         0.0763
     18 O3'         1.9175    0.2377    2.7247 O.3       1 ATP        -0.5884
     19 C2'         0.4468   -0.3802    0.9263 C.3       1 ATP         0.0784
     20 O2'         1.3993   -1.3703    0.5961 O.3       1 ATP        -0.6085
     21 C1'        -0.6159   -0.9100    1.8769 C.3       1 ATP         0.2186
     22 N9         -1.7127   -1.6108    1.2130 N.pl3     1 ATP        -0.1699
     23 C8         -2.8662   -1.0361    0.7388 C.ar      1 ATP         0.4438
     24 N7         -3.6774   -1.9166    0.1867 N.2       1 ATP        -0.6280
     25 C5         -3.0159   -3.1045    0.3122 C.ar      1 ATP         0.2109
     26 C6         -3.4377   -4.4169   -0.1199 C.ar      1 ATP         0.6180
     27 N6         -4.5720   -4.5691   -0.7080 N.2       1 ATP        -0.8319
     28 N1         -2.4600   -5.3463    0.2071 N.pl3     1 ATP        -0.8664
     29 C2         -1.2595   -5.0554    0.8515 C.ar      1 ATP         0.5952
     30 N3         -0.8555   -3.8803    1.2516 N.2       1 ATP        -0.5599
     31 C4         -1.7946   -2.9457    0.9448 C.ar      1 ATP         0.0076
     32 HOG3        1.4167    7.9217    3.8016 H         1 ATP         0.4101
     33 H5'1       -1.1767    2.0502    0.6368 H         1 ATP         0.0364
     34 H5'2       -0.2080    3.2814    1.4876 H         1 ATP         0.0364
     35 H4'         0.0403    1.7078    3.4343 H         1 ATP         0.0945
     36 H3'         1.5907    1.4859    1.1353 H         1 ATP         0.0703
     37 HO3'        2.6839   -0.1150    2.2479 H         1 ATP         0.4099
     38 H2'        -0.0017    0.0018    0.0005 H         1 ATP         0.0676
     39 HO2'        2.0953   -0.9375    0.0709 H         1 ATP         0.4291
     40 H1'        -0.1998   -1.6319    2.6178 H         1 ATP         0.0950
     41 H8         -3.0558    0.0252    0.8256 H         1 ATP         0.1135
     42 HN62       -4.7047   -5.5592   -0.9421 H         1 ATP         0.3588
     43 H2         -0.6372   -5.9505    1.0077 H         1 ATP         0.0302
     44 H44        -2.6338   -6.3155   -0.0469 H         1 ATP         0.4215
@<TRIPOS>BOND
     1    1    2 2
     2    1    3 1
     3    1    4 1
     4    1    8 1
     5    4   32 1
     6    5    6 2
     7    5    7 1
     8    5    8 1
     9    5   12 1
    10    9   10 2
    11    9   11 1
    12    9   12 1
    13    9   13 1
    14   13   14 1
    15   14   15 1
    16   14   33 1
    17   14   34 1
    18   15   16 1
    19   15   17 1
    20   15   35 1
    21   16   21 1
    22   17   18 1
    23   17   19 1
    24   17   36 1
    25   18   37 1
    26   19   20 1
    27   19   21 1
    28   19   38 1
    29   20   39 1
    30   21   22 1
    31   21   40 1
    32   22   23 ar
    33   22   31 ar
    34   23   24 ar
    35   23   41 1
    36   24   25 ar
    37   25   26 ar
    38   25   31 ar
    39   26   27 2
    40   26   28 ar
    41   27   42 1
    42   28   29 ar
    43   28   44 1
    44   29   30 ar
    45   29   43 1
    46   30   31 ar
@<TRIPOS>SUBSTRUCTURE
     1 ATP         1 GROUP 0 A     ****
@<TRIPOS>MOLECULE
[[[3,4-dihydroxy-5-(6-imino-1~{H}-purin-9-yl)tetrahydrofuran-2-yl]methoxy-oxido-phosphoryl]oxy-oxido-phosphoryl] hydrogen phosphate
   44    46     1     0     0
SMALL
USER_CHARGES

@<TRIPOS>ATOM
      1 PG          0.9205    2.8064   -3.5163 P.3       1 ATP         1.5257
      2 O1G         1.2487    2.0574   -2.2440 O.co2     1 ATP        -0.8737
      3 O2G         1.9433    3.7051   -4.1750 O.co2     1 ATP        -0.8737
      4 O3G         0.3816    1.7351   -4.6244 O.3       1 ATP        -0.7971
      5 PB         -0.7639    4.9217   -2.3198 P.3       1 ATP         1.6824
      6 O1B         0.2629    5.9981   -2.5929 O.co2     1 ATP        -0.8925
      7 O2B        -2.2453    5.2232   -2.3633 O.co2     1 ATP        -0.8925
      8 O3B        -0.4599    3.6487   -3.2959 O.3       1 ATP        -0.8047
      9 PA         -0.4665    4.8322    0.6228 P.3       1 ATP         1.5908
     10 O1A        -1.9050    5.1497    0.9698 O.co2     1 ATP        -0.8932
     11 O2A         0.6096    5.8892    0.7429 O.co2     1 ATP        -0.8932
     12 O3A        -0.4148    4.2162   -0.8897 O.3       1 ATP        -0.8088
     13 O5'         0.0178    3.5131    1.4595 O.3       1 ATP        -0.5646
     14 C5'        -0.8811    2.4285    1.6206 C.3       1 ATP         0.2204
     15 C4'        -0.1994    1.3333    2.4288 C.3       1 ATP         0.0965
     16 O4'        -1.1285    0.2356    2.5840 O.3       1 ATP        -0.3907
     17 C3'         1.0324    0.7610    1.7344 C.3       1 ATP         0.0763
     18 O3'         1.9175    0.2377    2.7247 O.3       1 ATP        -0.5884
     19 C2'         0.4468   -0.3802    0.9263 C.3       1 ATP         0.0784
     20 O2'         1.3993   -1.3703    0.5961 O.3       1 ATP        -0.6085
     21 C1'        -0.6159   -0.9100    1.8769 C.3       1 ATP         0.2186
     22 N9         -1.7127   -1.6108    1.2130 N.pl3     1 ATP        -0.1699
     23 C8         -2.8662   -1.0361    0.7388 C.ar      1 ATP         0.4438
     24 N7         -3.6774   -1.9166    0.1867 N.2       1 ATP        -0.6280
     25 C5         -3.0159   -3.1045    0.3122 C.ar      1 ATP         0.2109
     26 C6         -3.4377   -4.4169   -0.1199 C.ar      1 ATP         0.6180
     27 N6         -4.5720   -4.5691   -0.7080 N.2       1 ATP        -0.8319
     28 N1         -2.4600   -5.3463    0.2071 N.pl3     1 ATP        -0.8664
     29 C2         -1.2595   -5.0554    0.8515 C.ar      1 ATP         0.5952
     30 N3         -0.8555   -3.8803    1.2516 N.2       1 ATP        -0.5599
     31 C4         -1.7946   -2.9457    0.9448 C.ar      1 ATP         0.0076
     32 HOG3        0.1254    2.0690   -5.5105 H         1 ATP         0.4101
     33 H5'1       -1.7771    2.7849    2.1387 H         1 ATP         0.0364
     34 H5'2       -1.1654    2.0541    0.6320 H         1 ATP         0.0364
     35 H4'         0.0403    1.7078    3.4343 H         1 ATP         0.0945
     36 H3'         1.5907    1.4859    1.1353 H         1 ATP         0.0703
     37 HO3'        2.6839   -0.1150    2.2479 H         1 ATP         0.4099
     38 H2'        -0.0017    0.0018    0.0005 H         1 ATP         0.0676
     39 HO2'        2.0953   -0.9375    0.0709 H         1 ATP         0.4291
     40 H1'        -0.1998   -1.6319    2.6178 H         1 ATP         0.0950
     41 H8         -3.0558    0.0252    0.8256 H         1 ATP         0.1135
     42 HN62       -4.7047   -5.5592   -0.9421 H         1 ATP         0.3588
     43 H2         -0.6372   -5.9505    1.0077 H         1 ATP         0.0302
     44 H44        -2.6338   -6.3155   -0.0469 H         1 ATP         0.4215
@<TRIPOS>BOND
     1    1    2 2
     2    1    3 1
     3    1    4 1
     4    1    8 1
     5    4   32 1
     6    5    6 2
     7    5    7 1
     8    5    8 1
     9    5   12 1
    10    9   10 2
    11    9   11 1
    12    9   12 1
    13    9   13 1
    14   13   14 1
    15   14   15 1
    16   14   33 1
    17   14   34 1
    18   15   16 1
    19   15   17 1
    20   15   35 1
    21   16   21 1
    22   17   18 1
    23   17   19 1
    24   17   36 1
    25   18   37 1
    26   19   20 1
    27   19   21 1
    28   19   38 1
    29   20   39 1
    30   21   22 1
    31   21   40 1
    32   22   23 ar
    33   22   31 ar
    34   23   24 ar
    35   23   41 1
    36   24   25 ar
    37   25   26 ar
    38   25   31 ar
    39   26   27 2
    40   26   28 ar
    41   27   42 1
    42   28   29 ar
    43   28   44 1
    44   29   30 ar
    45   29   43 1
    46   30   31 ar
@<TRIPOS>SUBSTRUCTURE
     1 ATP         1 GROUP 0 A     ****
@<TRIPOS>MOLECULE
[[[3,4-dihydroxy-5-(6-imino-1~{H}-purin-9-yl)tetrahydrofuran-2-yl]methoxy-oxido-phosphoryl]oxy-oxido-phosphoryl] hydrogen phosphate
   44    46     1     0     0
SMALL
USER_CHARGES

@<TRIPOS>ATOM
      1 PG          0.7355    7.1161    1.7917 P.3       1 ATP         1.5257
      2 O1G         1.0111    7.6019    0.3861 O.co2     1 ATP        -0.8737
      3 O2G         1.0189    5.6844    2.1888 O.co2     1 ATP        -0.8737
      4 O3G         1.4992    8.1061    2.8417 O.3       1 ATP        -0.7971
      5 PB         -2.2058    6.9006    1.5779 P.3       1 ATP         1.6824
      6 O1B        -3.3526    7.4364    2.4056 O.co2     1 ATP        -0.8925
      7 O2B        -2.1834    7.0605    0.0740 O.co2     1 ATP        -0.8925
      8 O3B        -0.8058    7.4794    2.1867 O.3       1 ATP        -0.8047
      9 PA         -2.9646    4.0418    1.6587 P.3       1 ATP         1.5908
     10 O1A        -3.0699    3.8298    0.1639 O.co2     1 ATP        -0.8932
     11 O2A        -4.2078    4.1934    2.5079 O.co2     1 ATP        -0.8932
     12 O3A        -1.9910    5.3235    1.9402 O.3       1 ATP        -0.8088
     13 O5'        -2.0401    2.8620    2.3128 O.3       1 ATP        -0.5646
     14 C5'        -0.8811    2.4285    1.6206 C.3       1 ATP         0.2204
     15 C4'        -0.1994    1.3333    2.4288 C.3       1 ATP         0.0965
     16 O4'        -1.1285    0.2356    2.5840 O.3       1 ATP        -0.3907
     17 C3'         1.0324    0.7610    1.7344 C.3       1 ATP         0.0763
     18 O3'         1.9175    0.2377    2.7247 O.3       1 ATP        -0.5884
     19 C2'         0.4468   -0.3802    0.9263 C.3       1 ATP         0.0784
     20 O2'         1.3993   -1.3703    0.5961 O.3       1 ATP        -0.6085
     21 C1'        -0.6159   -0.9100    1.8769 C.3       1 ATP         0.2186
     22 N9         -1.7127   -1.6108    1.2130 N.pl3     1 ATP        -0.1699
     23 C8         -1.7690   -2.9583    0.9549 C.ar      1 ATP         0.4438
     24 N7         -2.8827   -3.3076    0.3418 N.2       1 ATP        -0.6280
     25 C5         -3.5683   -2.1351    0.2017 C.ar      1 ATP         0.2109
     26 C6         -4.8617   -1.9185   -0.4044 C.ar      1 ATP         0.6180
     27 N6         -5.5166   -2.9094   -0.8993 N.2       1 ATP        -0.8319
     28 N1         -5.1837   -0.5701   -0.3344 N.pl3     1 ATP        -0.8664
     29 C2         -4.3821    0.4180    0.2330 C.ar      1 ATP         0.5952
     30 N3         -3.2117    0.2488    0.7860 N.2       1 ATP        -0.5599
     31 C4         -2.8672   -1.0657    0.7327 C.ar      1 ATP         0.0076
     32 HOG3        1.4167    7.9217    3.8016 H         1 ATP         0.4101
     33 H5'1       -1.1767    2.0502    0.6368 H         1 ATP         0.0364
     34 H5'2       -0.2080    3.2814    1.4876 H         1 ATP         0.0364
     35 H4'         0.0403    1.7078    3.4343 H         1 ATP         0.0945
     36 H3'         1.5907    1.4859    1.1353 H         1 ATP         0.0703
     37 HO3'        2.6839   -0.1150    2.2479 H         1 ATP         0.4099
     38 H2'        -0.0017    0.0018    0.0005 H         1 ATP         0.0676
     39 HO2'        2.0953   -0.9375    0.0709 H         1 ATP         0.4291
     40 H1'        -0.1998   -1.6319    2.6178 H         1 ATP         0.0950
     41 H8         -0.9697   -3.6300    1.2371 H         1 ATP         0.1135
     42 HN62       -6.4060   -2.5723   -1.2840 H         1 ATP         0.3588
     43 H2         -4.8409    1.4176    0.1757 H         1 ATP         0.0302
     44 H44        -6.0768   -0.2826   -0.7263 H         1 ATP         0.4215
@<TRIPOS>BOND
     1    1    2 2
     2    1    3 1
     3    1    4 1
     4    1    8 1
     5    4   32 1
     6    5    6 2
     7    5    7 1
     8    5    8 1
     9    5   12 1
    10    9   10 2
    11    9   11 1
    12    9   12 1
    13    9   13 1
    14   13   14 1
    15   14   15 1
    16   14   33 1
    17   14   34 1
    18   15   16 1
    19   15   17 1
    20   15   35 1
    21   16   21 1
    22   17   18 1
    23   17   19 1
    24   17   36 1
    25   18   37 1
    26   19   20 1
    27   19   21 1
    28   19   38 1
    29   20   39 1
    30   21   22 1
    31   21   40 1
    32   22   23 ar
    33   22   31 ar
    34   23   24 ar
    35   23   41 1
    36   24   25 ar
    37   25   26 ar
    38   25   31 ar
    39   26   27 2
    40   26   28 ar
    41   27   42 1
    42   28   29 ar
    43   28   44 1
    44   29   30 ar
    45   29   43 1
    46   30   31 ar
@<TRIPOS>SUBSTRUCTURE
     1 ATP         1 GROUP 0 A     ****
@<TRIPOS>MOLECULE
[[[3,4-dihydroxy-5-(6-imino-1~{H}-purin-9-yl)tetrahydrofuran-2-yl]methoxy-oxido-phosphoryl]oxy-oxido-phosphoryl] hydrogen phosphate
   44    46     1     0     0
SMALL
USER_CHARGES

@<TRIPOS>ATOM
      1 PG         -2.5659    7.9088   -1.1785 P.3       1 ATP         1.5257
      2 O1G        -1.3449    8.7995   -1.2352 O.co2     1 ATP        -0.8737
      3 O2G        -3.9489    8.4959   -1.0043 O.co2     1 ATP        -0.8737
      4 O3G        -2.5717    6.9519   -2.5015 O.3       1 ATP        -0.7971
      5 PB         -2.2058    6.9006    1.5779 P.3       1 ATP         1.6824
      6 O1B        -0.9325    7.6501    1.9011 O.co2     1 ATP        -0.8925
      7 O2B        -3.5403    7.3483    2.1313 O.co2     1 ATP        -0.8925
      8 O3B        -2.3325    6.7592   -0.0437 O.3       1 ATP        -0.8047
      9 PA         -2.9646    4.0418    1.6587 P.3       1 ATP         1.5908
     10 O1A        -3.0699    3.8298    0.1639 O.co2     1 ATP        -0.8932
     11 O2A        -4.2078    4.1934    2.5079 O.co2     1 ATP        -0.8932
     12 O3A        -1.9910    5.3235    1.9402 O.3       1 ATP        -0.8088
     13 O5'        -2.0401    2.8620    2.3128 O.3       1 ATP        -0.5646
     14 C5'        -0.8811    2.4285    1.6206 C.3       1 ATP         0.2204
     15 C4'        -0.1994    1.3333    2.4288 C.3       1 ATP         0.0965
     16 O4'        -1.1285    0.2356    2.5840 O.3       1 ATP        -0.3907
     17 C3'         1.0324    0.7610    1.7344 C.3       1 ATP         0.0763
     18 O3'         1.9175    0.2377    2.7247 O.3       1 ATP        -0.5884
     19 C2'         0.4468   -0.3802    0.9263 C.3       1 ATP         0.0784
     20 O2'         1.3993   -1.3703    0.5961 O.3       1 ATP        -0.6085
     21 C1'        -0.6159   -0.9100    1.8769 C.3       1 ATP         0.2186
     22 N9         -1.7127   -1.6108    1.2130 N.pl3     1 ATP        -0.1699
     23 C8         -2.8662   -1.0361    0.7388 C.ar      1 ATP         0.4438
     24 N7         -3.6774   -1.9166    0.1867 N.2       1 ATP        -0.6280
     25 C5         -3.0159   -3.1045    0.3122 C.ar      1 ATP         0.2109
     26 C6         -3.4377   -4.4169   -0.1199 C.ar      1 ATP         0.6180
     27 N6         -4.5720   -4.5691   -0.7080 N.2       1 ATP        -0.8319
     28 N1         -2.4600   -5.3463    0.2071 N.pl3     1 ATP        -0.8664
     29 C2         -1.2595   -5.0554    0.8515 C.ar      1 ATP         0.5952
     30 N3         -0.8555   -3.8803    1.2516 N.2       1 ATP        -0.5599
     31 C4         -1.7946   -2.9457    0.9448 C.ar      1 ATP         0.0076
     32 HOG3       -3.3069    6.3118   -2.6115 H         1 ATP         0.4101
     33 H5'1       -1.1767    2.0502    0.6368 H         1 ATP         0.0364
     34 H5'2       -0.2080    3.2814    1.4876 H         1 ATP         0.0364
     35 H4'         0.0403    1.7078    3.4343 H         1 ATP         0.0945
     36 H3'         1.5907    1.4859    1.1353 H         1 ATP         0.0703
     37 HO3'        2.6839   -0.1150    2.2479 H         1 ATP         0.4099
     38 H2'        -0.0017    0.0018    0.0005 H         1 ATP         0.0676
     39 HO2'        2.0953   -0.9375    0.0709 H         1 ATP         0.4291
     40 H1'        -0.1998   -1.6319    2.6178 H         1 ATP         0.0950
     41 H8         -3.0558    0.0252    0.8256 H         1 ATP         0.1135
     42 HN62       -4.7047   -5.5592   -0.9421 H         1 ATP         0.3588
     43 H2         -0.6372   -5.9505    1.0077 H         1 ATP         0.0302
     44 H44        -2.6338   -6.3155   -0.0469 H         1 ATP         0.4215
@<TRIPOS>BOND
     1    1    2 2
     2    1    3 1
     3    1    4 1
     4    1    8 1
     5    4   32 1
     6    5    6 2
     7    5    7 1
     8    5    8 1
     9    5   12 1
    10    9   10 2
    11    9   11 1
    12    9   12 1
    13    9   13 1
    14   13   14 1
    15   14   15 1
    16   14   33 1
    17   14   34 1
    18   15   16 1
    19   15   17 1
    20   15   35 1
    21   16   21 1
    22   17   18 1
    23   17   19 1
    24   17   36 1
    25   18   37 1
    26   19   20 1
    27   19   21 1
    28   19   38 1
    29   20   39 1
    30   21   22 1
    31   21   40 1
    32   22   23 ar
    33   22   31 ar
    34   23   24 ar
    35   23   41 1
    36   24   25 ar
    37   25   26 ar
    38   25   31 ar
    39   26   27 2
    40   26   28 ar
    41   27   42 1
    42   28   29 ar
    43   28   44 1
    44   29   30 ar
    45   29   43 1
    46   30   31 ar
@<TRIPOS>SUBSTRUCTURE
     1 ATP         1 GROUP 0 A     ****
@<TRIPOS>MOLECULE
[[[3,4-dihydroxy-5-(6-imino-1~{H}-purin-9-yl)tetrahydrofuran-2-yl]methoxy-oxido-phosphoryl]oxy-oxido-phosphoryl] hydrogen phosphate
   44    46     1     0     0
SMALL
USER_CHARGES

@<TRIPOS>ATOM
      1 PG         -6.0801    3.4123   -1.8823 P.3       1 ATP         1.5257
      2 O1G        -7.1730    4.3643   -1.4501 O.co2     1 ATP        -0.8737
      3 O2G        -6.4144    2.0960   -2.5482 O.co2     1 ATP        -0.8737
      4 O3G        -5.0321    4.2241   -2.8355 O.3       1 ATP        -0.7971
      5 PB         -5.3881    2.3486    0.7885 P.3       1 ATP         1.6824
      6 O1B        -6.3838    3.1565    1.5906 O.co2     1 ATP        -0.8925
      7 O2B        -5.6263    0.8852    0.4897 O.co2     1 ATP        -0.8925
      8 O3B        -5.0915    3.1280   -0.6152 O.3       1 ATP        -0.8047
      9 PA         -3.0798    3.8627    1.8536 P.3       1 ATP         1.5908
     10 O1A        -3.8220    4.5968    2.9492 O.co2     1 ATP        -0.8932
     11 O2A        -2.6995    4.5681    0.5701 O.co2     1 ATP        -0.8932
     12 O3A        -3.9133    2.5109    1.4692 O.3       1 ATP        -0.8088
     13 O5'        -1.7336    3.1724    2.4750 O.3       1 ATP        -0.5646
     14 C5'        -0.8811    2.4285    1.6206 C.3       1 ATP         0.2204
     15 C4'        -0.1994    1.3333    2.4288 C.3       1 ATP         0.0965
     16 O4'        -1.1285    0.2356    2.5840 O.3       1 ATP        -0.3907
     17 C3'         1.0324    0.7610    1.7344 C.3       1 ATP         0.0763
     18 O3'         1.9175    0.2377    2.7247 O.3       1 ATP        -0.5884
     19 C2'         0.4468   -0.3802    0.9263 C.3       1 ATP         0.0784
     20 O2'         1.3993   -1.3703    0.5961 O.3       1 ATP        -0.6085
     21 C1'        -0.6159   -0.9100    1.8769 C.3       1 ATP         0.2186
     22 N9         -1.7127   -1.6108    1.2130 N.pl3     1 ATP        -0.1699
     23 C8         -2.8662   -1.0361    0.7388 C.ar      1 ATP         0.4438
     24 N7         -3.6774   -1.9166    0.1867 N.2       1 ATP        -0.6280
     25 C5         -3.0159   -3.1045    0.3122 C.ar      1 ATP         0.2109
     26 C6         -3.4377   -4.4169   -0.1199 C.ar      1 ATP         0.6180
     27 N6         -4.5720   -4.5691   -0.7080 N.2       1 ATP        -0.8319
     28 N1         -2.4600   -5.3463    0.2071 N.pl3     1 ATP        -0.8664
     29 C2         -1.2595   -5.0554    0.8515 C.ar      1 ATP         0.5952
     30 N3         -0.8555   -3.8803    1.2516 N.2       1 ATP        -0.5599
     31 C4         -1.7946   -2.9457    0.9448 C.ar      1 ATP         0.0076
     32 HOG3       -4.2605    3.7398   -3.1993 H         1 ATP         0.4101
     33 H5'1       -1.4800    1.9927    0.8146 H         1 ATP         0.0364
     34 H5'2       -0.1367    3.1040    1.1872 H         1 ATP         0.0364
     35 H4'         0.0403    1.7078    3.4343 H         1 ATP         0.0945
     36 H3'         1.5907    1.4859    1.1353 H         1 ATP         0.0703
     37 HO3'        2.6839   -0.1150    2.2479 H         1 ATP         0.4099
     38 H2'        -0.0017    0.0018    0.0005 H         1 ATP         0.0676
     39 HO2'        2.0953   -0.9375    0.0709 H         1 ATP         0.4291
     40 H1'        -0.1998   -1.6319    2.6178 H         1 ATP         0.0950
     41 H8         -3.0558    0.0252    0.8256 H         1 ATP         0.1135
     42 HN62       -4.7047   -5.5592   -0.9421 H         1 ATP         0.3588
     43 H2         -0.6372   -5.9505    1.0077 H         1 ATP         0.0302
     44 H44        -2.6338   -6.3155   -0.0469 H         1 ATP         0.4215
@<TRIPOS>BOND
     1    1    2 2
     2    1    3 1
     3    1    4 1
     4    1    8 1
     5    4   32 1
     6    5    6 2
     7    5    7 1
     8    5    8 1
     9    5   12 1
    10    9   10 2
    11    9   11 1
    12    9   12 1
    13    9   13 1
    14   13   14 1
    15   14   15 1
    16   14   33 1
    17   14   34 1
    18   15   16 1
    19   15   17 1
    20   15   35 1
    21   16   21 1
    22   17   18 1
    23   17   19 1
    24   17   36 1
    25   18   37 1
    26   19   20 1
    27   19   21 1
    28   19   38 1
    29   20   39 1
    30   21   22 1
    31   21   40 1
    32   22   23 ar
    33   22   31 ar
    34   23   24 ar
    35   23   41 1
    36   24   25 ar
    37   25   26 ar
    38   25   31 ar
    39   26   27 2
    40   26   28 ar
    41   27   42 1
    42   28   29 ar
    43   28   44 1
    44   29   30 ar
    45   29   43 1
    46   30   31 ar
@<TRIPOS>SUBSTRUCTURE
     1 ATP         1 GROUP 0 A     ****
@<TRIPOS>MOLECULE
[[[3,4-dihydroxy-5-(6-imino-1~{H}-purin-9-yl)tetrahydrofuran-2-yl]methoxy-oxido-phosphoryl]oxy-oxido-phosphoryl] hydrogen phosphate
   44    46     1     0     0
SMALL
USER_CHARGES

@<TRIPOS>ATOM
      1 PG         -4.4605    8.5184    2.5988 P.3       1 ATP         1.5257
      2 O1G        -5.0879    8.8645    1.2668 O.co2     1 ATP        -0.8737
      3 O2G        -3.6507    9.5402    3.3654 O.co2     1 ATP        -0.8737
      4 O3G        -5.6241    7.9341    3.5839 O.3       1 ATP        -0.7971
      5 PB         -2.2058    6.9006    1.5779 P.3       1 ATP         1.6824
      6 O1B        -2.5236    7.0206    0.1041 O.co2     1 ATP        -0.8925
      7 O2B        -1.0852    7.6996    2.2052 O.co2     1 ATP        -0.8925
      8 O3B        -3.5738    7.1586    2.4309 O.3       1 ATP        -0.8047
      9 PA         -2.9646    4.0418    1.6587 P.3       1 ATP         1.5908
     10 O1A        -3.0699    3.8298    0.1639 O.co2     1 ATP        -0.8932
     11 O2A        -4.2078    4.1934    2.5079 O.co2     1 ATP        -0.8932
     12 O3A        -1.9910    5.3235    1.9402 O.3       1 ATP        -0.8088
     13 O5'        -2.0401    2.8620    2.3128 O.3       1 ATP        -0.5646
     14 C5'        -0.8811    2.4285    1.6206 C.3       1 ATP         0.2204
     15 C4'        -0.1994    1.3333    2.4288 C.3       1 ATP         0.0965
     16 O4'        -1.1285    0.2356    2.5840 O.3       1 ATP        -0.3907
     17 C3'         1.0324    0.7610    1.7344 C.3       1 ATP         0.0763
     18 O3'         1.9175    0.2377    2.7247 O.3       1 ATP        -0.5884
     19 C2'         0.4468   -0.3802    0.9263 C.3       1 ATP         0.0784
     20 O2'         1.3993   -1.3703    0.5961 O.3       1 ATP        -0.6085
     21 C1'        -0.6159   -0.9100    1.8769 C.3       1 ATP         0.2186
     22 N9         -1.7127   -1.6108    1.2130 N.pl3     1 ATP        -0.1699
     23 C8         -2.8662   -1.0361    0.7388 C.ar      1 ATP         0.4438
     24 N7         -3.6774   -1.9166    0.1867 N.2       1 ATP        -0.6280
     25 C5         -3.0159   -3.1045    0.3122 C.ar      1 ATP         0.2109
     26 C6         -3.4377   -4.4169   -0.1199 C.ar      1 ATP         0.6180
     27 N6         -4.5720   -4.5691   -0.7080 N.2       1 ATP        -0.8319
     28 N1         -2.4600   -5.3463    0.2071 N.pl3     1 ATP        -0.8664
     29 C2         -1.2595   -5.0554    0.8515 C.ar      1 ATP         0.5952
     30 N3         -0.8555   -3.8803    1.2516 N.2       1 ATP        -0.5599
     31 C4         -1.7946   -2.9457    0.9448 C.ar      1 ATP         0.0076
     32 HOG3       -5.3735    7.6623    4.4925 H         1 ATP         0.4101
     33 H5'1       -1.1767    2.0502    0.6368 H         1 ATP         0.0364
     34 H5'2       -0.2080    3.2814    1.4876 H         1 ATP         0.0364
     35 H4'         0.0403    1.7078    3.4343 H         1 ATP         0.0945
     36 H3'         1.5907    1.4859    1.1353 H         1 ATP         0.0703
     37 HO3'        2.6839   -0.1150    2.2479 H         1 ATP         0.4099
     38 H2'        -0.0017    0.0018    0.0005 H         1 ATP         0.0676
     39 HO2'        2.0953   -0.9375    0.0709 H         1 ATP         0.4291
     40 H1'        -0.1998   -1.6319    2.6178 H         1 ATP         0.0950
     41 H8         -3.0558    0.0252    0.8256 H         1 ATP         0.1135
     42 HN62       -4.7047   -5.5592   -0.9421 H         1 ATP         0.3588
     43 H2         -0.6372   -5.9505    1.0077 H         1 ATP         0.0302
     44 H44        -2.6338   -6.3155   -0.0469 H         1 ATP         0.4215
@<TRIPOS>BOND
     1    1    2 2
     2    1    3 1
     3    1    4 1
     4    1    8 1
     5    4   32 1
     6    5    6 2
     7    5    7 1
     8    5    8 1
     9    5   12 1
    10    9   10 2
    11    9   11 1
    12    9   12 1
    13    9   13 1
    14   13   14 1
    15   14   15 1
    16   14   33 1
    17   14   34 1
    18   15   16 1
    19   15   17 1
    20   15   35 1
    21   16   21 1
    22   17   18 1
    23   17   19 1
    24   17   36 1
    25   18   37 1
    26   19   20 1
    27   19   21 1
    28   19   38 1
    29   20   39 1
    30   21   22 1
    31   21   40 1
    32   22   23 ar
    33   22   31 ar
    34   23   24 ar
    35   23   41 1
    36   24   25 ar
    37   25   26 ar
    38   25   31 ar
    39   26   27 2
    40   26   28 ar
    41   27   42 1
    42   28   29 ar
    43   28   44 1
    44   29   30 ar
    45   29   43 1
    46   30   31 ar
@<TRIPOS>SUBSTRUCTURE
     1 ATP         1 GROUP 0 A     ****
@<TRIPOS>MOLECULE
[[[3,4-dihydroxy-5-(6-imino-1~{H}-purin-9-yl)tetrahydrofuran-2-yl]methoxy-oxido-phosphoryl]oxy-oxido-phosphoryl] hydrogen phosphate
   44    46     1     0     0
SMALL
USER_CHARGES

@<TRIPOS>ATOM
      1 PG         -1.1454    2.1679   -3.3270 P.3       1 ATP         1.5257
      2 O1G        -2.5887    2.3026   -3.7586 O.co2     1 ATP        -0.8737
      3 O2G        -0.7793    1.4315   -2.0576 O.co2     1 ATP        -0.8737
      4 O3G        -0.2921    1.5269   -4.5627 O.3       1 ATP        -0.7971
      5 PB         -0.7639    4.9217   -2.3198 P.3       1 ATP         1.6824
      6 O1B         0.2629    5.9981   -2.5929 O.co2     1 ATP        -0.8925
      7 O2B        -2.2453    5.2232   -2.3633 O.co2     1 ATP        -0.8925
      8 O3B        -0.4599    3.6487   -3.2959 O.3       1 ATP        -0.8047
      9 PA         -0.4665    4.8322    0.6228 P.3       1 ATP         1.5908
     10 O1A        -1.9050    5.1497    0.9698 O.co2     1 ATP        -0.8932
     11 O2A         0.6096    5.8892    0.7429 O.co2     1 ATP        -0.8932
     12 O3A        -0.4148    4.2162   -0.8897 O.3       1 ATP        -0.8088
     13 O5'         0.0178    3.5131    1.4595 O.3       1 ATP        -0.5646
     14 C5'        -0.8811    2.4285    1.6206 C.3       1 ATP         0.2204
     15 C4'        -0.1994    1.3333    2.4288 C.3       1 ATP         0.0965
     16 O4'        -1.1285    0.2356    2.5840 O.3       1 ATP        -0.3907
     17 C3'         1.0324    0.7610    1.7344 C.3       1 ATP         0.0763
     18 O3'         1.9175    0.2377    2.7247 O.3       1 ATP        -0.5884
     19 C2'         0.4468   -0.3802    0.9263 C.3       1 ATP         0.0784
     20 O2'         1.3993   -1.3703    0.5961 O.3       1 ATP        -0.6085
     21 C1'        -0.6159   -0.9100    1.8769 C.3       1 ATP         0.2186
     22 N9         -1.7127   -1.6108    1.2130 N.pl3     1 ATP        -0.1699
     23 C8         -1.7690   -2.9583    0.9549 C.ar      1 ATP         0.4438
     24 N7         -2.8827   -3.3076    0.3418 N.2       1 ATP        -0.6280
     25 C5         -3.5683   -2.1351    0.2017 C.ar      1 ATP         0.2109
     26 C6         -4.8617   -1.9185   -0.4044 C.ar      1 ATP         0.6180
     27 N6         -5.5166   -2.9094   -0.8993 N.2       1 ATP        -0.8319
     28 N1         -5.1837   -0.5701   -0.3344 N.pl3     1 ATP        -0.8664
     29 C2         -4.3821    0.4180    0.2330 C.ar      1 ATP         0.5952
     30 N3         -3.2117    0.2488    0.7860 N.2       1 ATP        -0.5599
     31 C4         -2.8672   -1.0657    0.7327 C.ar      1 ATP         0.0076
     32 HOG3        0.6691    1.3761   -4.4376 H         1 ATP         0.4101
     33 H5'1       -1.7771    2.7849    2.1387 H         1 ATP         0.0364
     34 H5'2       -1.1654    2.0541    0.6320 H         1 ATP         0.0364
     35 H4'         0.0403    1.7078    3.4343 H         1 ATP         0.0945
     36 H3'         1.5907    1.4859    1.1353 H         1 ATP         0.0703
     37 HO3'        2.6839   -0.1150    2.2479 H         1 ATP         0.4099
     38 H2'        -0.0017    0.0018    0.0005 H         1 ATP         0.0676
     39 HO2'        2.0953   -0.9375    0.0709 H         1 ATP         0.4291
     40 H1'        -0.1998   -1.6319    2.6178 H         1 ATP         0.0950
     41 H8         -0.9697   -3.6300    1.2371 H         1 ATP         0.1135
     42 HN62       -6.4060   -2.5723   -1.2840 H         1 ATP         0.3588
     43 H2         -4.8409    1.4176    0.1757 H         1 ATP         0.0302
     44 H44        -6.0768   -0.2826   -0.7263 H         1 ATP         0.4215
@<TRIPOS>BOND
     1    1    2 2
     2    1    3 1
     3    1    4 1
     4    1    8 1
     5    4   32 1
     6    5    6 2
     7    5    7 1
     8    5    8 1
     9    5   12 1
    10    9   10 2
    11    9   11 1
    12    9   12 1
    13    9   13 1
    14   13   14 1
    15   14   15 1
    16   14   33 1
    17   14   34 1
    18   15   16 1
    19   15   17 1
    20   15   35 1
    21   16   21 1
    22   17   18 1
    23   17   19 1
    24   17   36 1
    25   18   37 1
    26   19   20 1
    27   19   21 1
    28   19   38 1
    29   20   39 1
    30   21   22 1
    31   21   40 1
    32   22   23 ar
    33   22   31 ar
    34   23   24 ar
    35   23   41 1
    36   24   25 ar
    37   25   26 ar
    38   25   31 ar
    39   26   27 2
    40   26   28 ar
    41   27   42 1
    42   28   29 ar
    43   28   44 1
    44   29   30 ar
    45   29   43 1
    46   30   31 ar
@<TRIPOS>SUBSTRUCTURE
     1 ATP         1 GROUP 0 A     ****
@<TRIPOS>MOLECULE
[[[3,4-dihydroxy-5-(6-imino-1~{H}-purin-9-yl)tetrahydrofuran-2-yl]methoxy-oxido-phosphoryl]oxy-oxido-phosphoryl] hydrogen phosphate
   44    46     1     0     0
SMALL
USER_CHARGES

@<TRIPOS>ATOM
      1 PG          0.3643    5.8247    5.7060 P.3       1 ATP         1.5257
      2 O1G         0.2754    4.3377    5.4450 O.co2     1 ATP        -0.8737
      3 O2G        -0.4749    6.4765    6.7825 O.co2     1 ATP        -0.8737
      4 O3G         1.9292    6.2137    5.9622 O.3       1 ATP        -0.7971
      5 PB         -1.1961    6.7418    3.3678 P.3       1 ATP         1.6824
      6 O1B        -2.3500    7.2091    4.2267 O.co2     1 ATP        -0.8925
      7 O2B        -0.8308    7.4606    2.0882 O.co2     1 ATP        -0.8925
      8 O3B         0.1379    6.6250    4.3018 O.3       1 ATP        -0.8047
      9 PA         -2.5400    4.4095    2.1393 P.3       1 ATP         1.5908
     10 O1A        -2.3768    4.8335    0.6957 O.co2     1 ATP        -0.8932
     11 O2A        -3.8713    4.5576    2.8432 O.co2     1 ATP        -0.8932
     12 O3A        -1.3978    5.1558    3.0383 O.3       1 ATP        -0.8088
     13 O5'        -2.0401    2.8620    2.3128 O.3       1 ATP        -0.5646
     14 C5'        -0.8811    2.4285    1.6206 C.3       1 ATP         0.2204
     15 C4'        -0.1994    1.3333    2.4288 C.3       1 ATP         0.0965
     16 O4'        -1.1285    0.2356    2.5840 O.3       1 ATP        -0.3907
     17 C3'         1.0324    0.7610    1.7344 C.3       1 ATP         0.0763
     18 O3'         1.9175    0.2377    2.7247 O.3       1 ATP        -0.5884
     19 C2'         0.4468   -0.3802    0.9263 C.3       1 ATP         0.0784
     20 O2'         1.3993   -1.3703    0.5961 O.3       1 ATP        -0.6085
     21 C1'        -0.6159   -0.9100    1.8769 C.3       1 ATP         0.2186
     22 N9         -1.7127   -1.6108    1.2130 N.pl3     1 ATP        -0.1699
     23 C8         -2.8662   -1.0361    0.7388 C.ar      1 ATP         0.4438
     24 N7         -3.6774   -1.9166    0.1867 N.2       1 ATP        -0.6280
     25 C5         -3.0159   -3.1045    0.3122 C.ar      1 ATP         0.2109
     26 C6         -3.4377   -4.4169   -0.1199 C.ar      1 ATP         0.6180
     27 N6         -4.5720   -4.5691   -0.7080 N.2       1 ATP        -0.8319
     28 N1         -2.4600   -5.3463    0.2071 N.pl3     1 ATP        -0.8664
     29 C2         -1.2595   -5.0554    0.8515 C.ar      1 ATP         0.5952
     30 N3         -0.8555   -3.8803    1.2516 N.2       1 ATP        -0.5599
     31 C4         -1.7946   -2.9457    0.9448 C.ar      1 ATP         0.0076
     32 HOG3        2.1532    7.1507    6.1471 H         1 ATP         0.4101
     33 H5'1       -1.1767    2.0502    0.6368 H         1 ATP         0.0364
     34 H5'2       -0.2080    3.2814    1.4876 H         1 ATP         0.0364
     35 H4'         0.0403    1.7078    3.4343 H         1 ATP         0.0945
     36 H3'         1.5907    1.4859    1.1353 H         1 ATP         0.0703
     37 HO3'        2.6839   -0.1150    2.2479 H         1 ATP         0.4099
     38 H2'        -0.0017    0.0018    0.0005 H         1 ATP         0.0676
     39 HO2'        2.0953   -0.9375    0.0709 H         1 ATP         0.4291
     40 H1'        -0.1998   -1.6319    2.6178 H         1 ATP         0.0950
     41 H8         -3.0558    0.0252    0.8256 H         1 ATP         0.1135
     42 HN62       -4.7047   -5.5592   -0.9421 H         1 ATP         0.3588
     43 H2         -0.6372   -5.9505    1.0077 H         1 ATP         0.0302
     44 H44        -2.6338   -6.3155   -0.0469 H         1 ATP         0.4215
@<TRIPOS>BOND
     1    1    2 2
     2    1    3 1
     3    1    4 1
     4    1    8 1
     5    4   32 1
     6    5    6 2
     7    5    7 1
     8    5    8 1
     9    5   12 1
    10    9   10 2
    11    9   11 1
    12    9   12 1
    13    9   13 1
    14   13   14 1
    15   14   15 1
    16   14   33 1
    17   14   34 1
    18   15   16 1
    19   15   17 1
    20   15   35 1
    21   16   21 1
    22   17   18 1
    23   17   19 1
    24   17   36 1
    25   18   37 1
    26   19   20 1
    27   19   21 1
    28   19   38 1
    29   20   39 1
    30   21   22 1
    31   21   40 1
    32   22   23 ar
    33   22   31 ar
    34   23   24 ar
    35   23   41 1
    36   24   25 ar
    37   25   26 ar
    38   25   31 ar
    39   26   27 2
    40   26   28 ar
    41   27   42 1
    42   28   29 ar
    43   28   44 1
    44   29   30 ar
    45   29   43 1
    46   30   31 ar
@<TRIPOS>SUBSTRUCTURE
     1 ATP         1 GROUP 0 A     ****
@<TRIPOS>MOLECULE
[[[3,4-dihydroxy-5-(6-imino-1~{H}-purin-9-yl)tetrahydrofuran-2-yl]methoxy-oxido-phosphoryl]oxy-oxido-phosphoryl] hydrogen phosphate
   44    46     1     0     0
SMALL
USER_CHARGES

@<TRIPOS>ATOM
      1 PG         -7.5300    1.6354    3.8807 P.3       1 ATP         1.5257
      2 O1G        -7.7040    0.3209    4.6081 O.co2     1 ATP        -0.8737
      3 O2G        -8.4406    2.0160    2.7345 O.co2     1 ATP        -0.8737
      4 O3G        -7.5479    2.8427    4.9798 O.3       1 ATP        -0.7971
      5 PB         -5.1531    0.9035    2.2813 P.3       1 ATP         1.6824
      6 O1B        -4.9966   -0.5121    2.7904 O.co2     1 ATP        -0.8925
      7 O2B        -5.7365    1.1844    0.9145 O.co2     1 ATP        -0.8925
      8 O3B        -5.9789    1.7705    3.3913 O.3       1 ATP        -0.8047
      9 PA         -3.3347    3.2338    2.1468 P.3       1 ATP         1.5908
     10 O1A        -4.0314    4.0802    3.1901 O.co2     1 ATP        -0.8932
     11 O2A        -3.5037    3.5289    0.6724 O.co2     1 ATP        -0.8932
     12 O3A        -3.7146    1.6655    2.4035 O.3       1 ATP        -0.8088
     13 O5'        -1.7336    3.1724    2.4750 O.3       1 ATP        -0.5646
     14 C5'        -0.8811    2.4285    1.6206 C.3       1 ATP         0.2204
     15 C4'        -0.1994    1.3333    2.4288 C.3       1 ATP         0.0965
     16 O4'        -1.1285    0.2356    2.5840 O.3       1 ATP        -0.3907
     17 C3'         1.0324    0.7610    1.7344 C.3       1 ATP         0.0763
     18 O3'         1.9175    0.2377    2.7247 O.3       1 ATP        -0.5884
     19 C2'         0.4468   -0.3802    0.9263 C.3       1 ATP         0.0784
     20 O2'         1.3993   -1.3703    0.5961 O.3       1 ATP        -0.6085
     21 C1'        -0.6159   -0.9100    1.8769 C.3       1 ATP         0.2186
     22 N9         -1.7127   -1.6108    1.2130 N.pl3     1 ATP        -0.1699
     23 C8         -2.0868   -2.9137    1.4327 C.ar      1 ATP         0.4438
     24 N7         -3.1125   -3.2756    0.6878 N.2       1 ATP        -0.6280
     25 C5         -3.4079   -2.1580   -0.0391 C.ar      1 ATP         0.2109
     26 C6         -4.4483   -1.9775   -1.0249 C.ar      1 ATP         0.6180
     27 N6         -5.2418   -2.9492   -1.3113 N.2       1 ATP        -0.8319
     28 N1         -4.3937   -0.6823   -1.5211 N.pl3     1 ATP        -0.8664
     29 C2         -3.4770    0.2901   -1.1271 C.ar      1 ATP         0.5952
     30 N3         -2.5289    0.1525   -0.2402 N.2       1 ATP        -0.5599
     31 C4         -2.5564   -1.1096    0.2655 C.ar      1 ATP         0.0076
     32 HOG3       -7.4451    3.7650    4.6620 H         1 ATP         0.4101
     33 H5'1       -1.4800    1.9927    0.8146 H         1 ATP         0.0364
     34 H5'2       -0.1367    3.1040    1.1872 H         1 ATP         0.0364
     35 H4'         0.0403    1.7078    3.4343 H         1 ATP         0.0945
     36 H3'         1.5907    1.4859    1.1353 H         1 ATP         0.0703
     37 HO3'        2.6839   -0.1150    2.2479 H         1 ATP         0.4099
     38 H2'        -0.0017    0.0018    0.0005 H         1 ATP         0.0676
     39 HO2'        2.0953   -0.9375    0.0709 H         1 ATP         0.4291
     40 H1'        -0.1998   -1.6319    2.6178 H         1 ATP         0.0950
     41 H8         -1.5740   -3.5449    2.1457 H         1 ATP         0.1135
     42 HN62       -5.9117   -2.6433   -2.0256 H         1 ATP         0.3588
     43 H2         -3.6225    1.2454   -1.6553 H         1 ATP         0.0302
     44 H44        -5.0794   -0.4231   -2.2258 H         1 ATP         0.4215
@<TRIPOS>BOND
     1    1    2 2
     2    1    3 1
     3    1    4 1
     4    1    8 1
     5    4   32 1
     6    5    6 2
     7    5    7 1
     8    5    8 1
     9    5   12 1
    10    9   10 2
    11    9   11 1
    12    9   12 1
    13    9   13 1
    14   13   14 1
    15   14   15 1
    16   14   33 1
    17   14   34 1
    18   15   16 1
    19   15   17 1
    20   15   35 1
    21   16   21 1
    22   17   18 1
    23   17   19 1
    24   17   36 1
    25   18   37 1
    26   19   20 1
    27   19   21 1
    28   19   38 1
    29   20   39 1
    30   21   22 1
    31   21   40 1
    32   22   23 ar
    33   22   31 ar
    34   23   24 ar
    35   23   41 1
    36   24   25 ar
    37   25   26 ar
    38   25   31 ar
    39   26   27 2
    40   26   28 ar
    41   27   42 1
    42   28   29 ar
    43   28   44 1
    44   29   30 ar
    45   29   43 1
    46   30   31 ar
@<TRIPOS>SUBSTRUCTURE
     1 ATP         1 GROUP 0 A     ****
@<TRIPOS>MOLECULE
[[[3,4-dihydroxy-5-(6-imino-1~{H}-purin-9-yl)tetrahydrofuran-2-yl]methoxy-oxido-phosphoryl]oxy-oxido-phosphoryl] hydrogen phosphate
   44    46     1     0     0
SMALL
USER_CHARGES

@<TRIPOS>ATOM
      1 PG         -2.5659    7.9088   -1.1785 P.3       1 ATP         1.5257
      2 O1G        -1.3449    8.7995   -1.2352 O.co2     1 ATP        -0.8737
      3 O2G        -3.9489    8.4959   -1.0043 O.co2     1 ATP        -0.8737
      4 O3G        -2.5717    6.9519   -2.5015 O.3       1 ATP        -0.7971
      5 PB         -2.2058    6.9006    1.5779 P.3       1 ATP         1.6824
      6 O1B        -0.9325    7.6501    1.9011 O.co2     1 ATP        -0.8925
      7 O2B        -3.5403    7.3483    2.1313 O.co2     1 ATP        -0.8925
      8 O3B        -2.3325    6.7592   -0.0437 O.3       1 ATP        -0.8047
      9 PA         -2.9646    4.0418    1.6587 P.3       1 ATP         1.5908
     10 O1A        -3.0699    3.8298    0.1639 O.co2     1 ATP        -0.8932
     11 O2A        -4.2078    4.1934    2.5079 O.co2     1 ATP        -0.8932
     12 O3A        -1.9910    5.3235    1.9402 O.3       1 ATP        -0.8088
     13 O5'        -2.0401    2.8620    2.3128 O.3       1 ATP        -0.5646
     14 C5'        -0.8811    2.4285    1.6206 C.3       1 ATP         0.2204
     15 C4'        -0.1994    1.3333    2.4288 C.3       1 ATP         0.0965
     16 O4'        -1.1285    0.2356    2.5840 O.3       1 ATP        -0.3907
     17 C3'         1.0324    0.7610    1.7344 C.3       1 ATP         0.0763
     18 O3'         1.9175    0.2377    2.7247 O.3       1 ATP        -0.5884
     19 C2'         0.4468   -0.3802    0.9263 C.3       1 ATP         0.0784
     20 O2'         1.3993   -1.3703    0.5961 O.3       1 ATP        -0.6085
     21 C1'        -0.6159   -0.9100    1.8769 C.3       1 ATP         0.2186
     22 N9         -1.7127   -1.6108    1.2130 N.pl3     1 ATP        -0.1699
     23 C8         -1.7690   -2.9583    0.9549 C.ar      1 ATP         0.4438
     24 N7         -2.8827   -3.3076    0.3418 N.2       1 ATP        -0.6280
     25 C5         -3.5683   -2.1351    0.2017 C.ar      1 ATP         0.2109
     26 C6         -4.8617   -1.9185   -0.4044 C.ar      1 ATP         0.6180
     27 N6         -5.5166   -2.9094   -0.8993 N.2       1 ATP        -0.8319
     28 N1         -5.1837   -0.5701   -0.3344 N.pl3     1 ATP        -0.8664
     29 C2         -4.3821    0.4180    0.2330 C.ar      1 ATP         0.5952
     30 N3         -3.2117    0.2488    0.7860 N.2       1 ATP        -0.5599
     31 C4         -2.8672   -1.0657    0.7327 C.ar      1 ATP         0.0076
     32 HOG3       -3.3069    6.3118   -2.6115 H         1 ATP         0.4101
     33 H5'1       -1.1767    2.0502    0.6368 H         1 ATP         0.0364
     34 H5'2       -0.2080    3.2814    1.4876 H         1 ATP         0.0364
     35 H4'         0.0403    1.7078    3.4343 H         1 ATP         0.0945
     36 H3'         1.5907    1.4859    1.1353 H         1 ATP         0.0703
     37 HO3'        2.6839   -0.1150    2.2479 H         1 ATP         0.4099
     38 H2'        -0.0017    0.0018    0.0005 H         1 ATP         0.0676
     39 HO2'        2.0953   -0.9375    0.0709 H         1 ATP         0.4291
     40 H1'        -0.1998   -1.6319    2.6178 H         1 ATP         0.0950
     41 H8         -0.9697   -3.6300    1.2371 H         1 ATP         0.1135
     42 HN62       -6.4060   -2.5723   -1.2840 H         1 ATP         0.3588
     43 H2         -4.8409    1.4176    0.1757 H         1 ATP         0.0302
     44 H44        -6.0768   -0.2826   -0.7263 H         1 ATP         0.4215
@<TRIPOS>BOND
     1    1    2 2
     2    1    3 1
     3    1    4 1
     4    1    8 1
     5    4   32 1
     6    5    6 2
     7    5    7 1
     8    5    8 1
     9    5   12 1
    10    9   10 2
    11    9   11 1
    12    9   12 1
    13    9   13 1
    14   13   14 1
    15   14   15 1
    16   14   33 1
    17   14   34 1
    18   15   16 1
    19   15   17 1
    20   15   35 1
    21   16   21 1
    22   17   18 1
    23   17   19 1
    24   17   36 1
    25   18   37 1
    26   19   20 1
    27   19   21 1
    28   19   38 1
    29   20   39 1
    30   21   22 1
    31   21   40 1
    32   22   23 ar
    33   22   31 ar
    34   23   24 ar
    35   23   41 1
    36   24   25 ar
    37   25   26 ar
    38   25   31 ar
    39   26   27 2
    40   26   28 ar
    41   27   42 1
    42   28   29 ar
    43   28   44 1
    44   29   30 ar
    45   29   43 1
    46   30   31 ar
@<TRIPOS>SUBSTRUCTURE
     1 ATP         1 GROUP 0 A     ****
@<TRIPOS>MOLECULE
[[[3,4-dihydroxy-5-(6-imino-1~{H}-purin-9-yl)tetrahydrofuran-2-yl]methoxy-oxido-phosphoryl]oxy-oxido-phosphoryl] hydrogen phosphate
   44    46     1     0     0
SMALL
USER_CHARGES

@<TRIPOS>ATOM
      1 PG         -6.4084    2.3383   -1.8250 P.3       1 ATP         1.5257
      2 O1G        -6.5684    0.8374   -1.9202 O.co2     1 ATP        -0.8737
      3 O2G        -6.1828    3.1761   -3.0640 O.co2     1 ATP        -0.8737
      4 O3G        -7.6887    2.9461   -1.0143 O.3       1 ATP        -0.7971
      5 PB         -4.7646    4.1198   -0.1315 P.3       1 ATP         1.6824
      6 O1B        -4.1320    4.9266   -1.2434 O.co2     1 ATP        -0.8925
      7 O2B        -5.8860    4.6887    0.7089 O.co2     1 ATP        -0.8925
      8 O3B        -5.2419    2.6801   -0.7358 O.3       1 ATP        -0.8047
      9 PA         -2.5926    4.4187    1.8556 P.3       1 ATP         1.5908
     10 O1A        -3.4218    5.0536    2.9508 O.co2     1 ATP        -0.8932
     11 O2A        -1.6631    5.2564    1.0048 O.co2     1 ATP        -0.8932
     12 O3A        -3.5855    3.5838    0.8621 O.3       1 ATP        -0.8088
     13 O5'        -1.7336    3.1724    2.4750 O.3       1 ATP        -0.5646
     14 C5'        -0.8811    2.4285    1.6206 C.3       1 ATP         0.2204
     15 C4'        -0.1994    1.3333    2.4288 C.3       1 ATP         0.0965
     16 O4'        -1.1285    0.2356    2.5840 O.3       1 ATP        -0.3907
     17 C3'         1.0324    0.7610    1.7344 C.3       1 ATP         0.0763
     18 O3'         1.9175    0.2377    2.7247 O.3       1 ATP        -0.5884
     19 C2'         0.4468   -0.3802    0.9263 C.3       1 ATP         0.0784
     20 O2'         1.3993   -1.3703    0.5961 O.3       1 ATP        -0.6085
     21 C1'        -0.6159   -0.9100    1.8769 C.3       1 ATP         0.2186
     22 N9         -1.7127   -1.6108    1.2130 N.pl3     1 ATP        -0.1699
     23 C8         -2.8662   -1.0361    0.7388 C.ar      1 ATP         0.4438
     24 N7         -3.6774   -1.9166    0.1867 N.2       1 ATP        -0.6280
     25 C5         -3.0159   -3.1045    0.3122 C.ar      1 ATP         0.2109
     26 C6         -3.4377   -4.4169   -0.1199 C.ar      1 ATP         0.6180
     27 N6         -4.5720   -4.5691   -0.7080 N.2       1 ATP        -0.8319
     28 N1         -2.4600   -5.3463    0.2071 N.pl3     1 ATP        -0.8664
     29 C2         -1.2595   -5.0554    0.8515 C.ar      1 ATP         0.5952
     30 N3         -0.8555   -3.8803    1.2516 N.2       1 ATP        -0.5599
     31 C4         -1.7946   -2.9457    0.9448 C.ar      1 ATP         0.0076
     32 HOG3       -7.7319    3.9153   -0.8687 H         1 ATP         0.4101
     33 H5'1       -1.4800    1.9927    0.8146 H         1 ATP         0.0364
     34 H5'2       -0.1367    3.1040    1.1872 H         1 ATP         0.0364
     35 H4'         0.0403    1.7078    3.4343 H         1 ATP         0.0945
     36 H3'         1.5907    1.4859    1.1353 H         1 ATP         0.0703
     37 HO3'        2.6839   -0.1150    2.2479 H         1 ATP         0.4099
     38 H2'        -0.0017    0.0018    0.0005 H         1 ATP         0.0676
     39 HO2'        2.0953   -0.9375    0.0709 H         1 ATP         0.4291
     40 H1'        -0.1998   -1.6319    2.6178 H         1 ATP         0.0950
     41 H8         -3.0558    0.0252    0.8256 H         1 ATP         0.1135
     42 HN62       -4.7047   -5.5592   -0.9421 H         1 ATP         0.3588
     43 H2         -0.6372   -5.9505    1.0077 H         1 ATP         0.0302
     44 H44        -2.6338   -6.3155   -0.0469 H         1 ATP         0.4215
@<TRIPOS>BOND
     1    1    2 2
     2    1    3 1
     3    1    4 1
     4    1    8 1
     5    4   32 1
     6    5    6 2
     7    5    7 1
     8    5    8 1
     9    5   12 1
    10    9   10 2
    11    9   11 1
    12    9   12 1
    13    9   13 1
    14   13   14 1
    15   14   15 1
    16   14   33 1
    17   14   34 1
    18   15   16 1
    19   15   17 1
    20   15   35 1
    21   16   21 1
    22   17   18 1
    23   17   19 1
    24   17   36 1
    25   18   37 1
    26   19   20 1
    27   19   21 1
    28   19   38 1
    29   20   39 1
    30   21   22 1
    31   21   40 1
    32   22   23 ar
    33   22   31 ar
    34   23   24 ar
    35   23   41 1
    36   24   25 ar
    37   25   26 ar
    38   25   31 ar
    39   26   27 2
    40   26   28 ar
    41   27   42 1
    42   28   29 ar
    43   28   44 1
    44   29   30 ar
    45   29   43 1
    46   30   31 ar
@<TRIPOS>SUBSTRUCTURE
     1 ATP         1 GROUP 0 A     ****
@<TRIPOS>MOLECULE
[[[3,4-dihydroxy-5-(6-imino-1~{H}-purin-9-yl)tetrahydrofuran-2-yl]methoxy-oxido-phosphoryl]oxy-oxido-phosphoryl] hydrogen phosphate
   44    46     1     0     0
SMALL
USER_CHARGES

@<TRIPOS>ATOM
      1 PG         -0.2356    9.0082    2.2260 P.3       1 ATP         1.5257
      2 O1G        -1.1104    9.8365    3.1402 O.co2     1 ATP        -0.8737
      3 O2G         0.0572    9.4586    0.8121 O.co2     1 ATP        -0.8737
      4 O3G         1.1826    8.7231    2.9833 O.3       1 ATP        -0.7971
      5 PB         -2.2058    6.9006    1.5779 P.3       1 ATP         1.6824
      6 O1B        -3.3526    7.4364    2.4056 O.co2     1 ATP        -0.8925
      7 O2B        -2.1834    7.0605    0.0740 O.co2     1 ATP        -0.8925
      8 O3B        -0.8058    7.4794    2.1867 O.3       1 ATP        -0.8047
      9 PA         -2.9646    4.0418    1.6587 P.3       1 ATP         1.5908
     10 O1A        -3.0699    3.8298    0.1639 O.co2     1 ATP        -0.8932
     11 O2A        -4.2078    4.1934    2.5079 O.co2     1 ATP        -0.8932
     12 O3A        -1.9910    5.3235    1.9402 O.3       1 ATP        -0.8088
     13 O5'        -2.0401    2.8620    2.3128 O.3       1 ATP        -0.5646
     14 C5'        -0.8811    2.4285    1.6206 C.3       1 ATP         0.2204
     15 C4'        -0.1994    1.3333    2.4288 C.3       1 ATP         0.0965
     16 O4'        -1.1285    0.2356    2.5840 O.3       1 ATP        -0.3907
     17 C3'         1.0324    0.7610    1.7344 C.3       1 ATP         0.0763
     18 O3'         1.9175    0.2377    2.7247 O.3       1 ATP        -0.5884
     19 C2'         0.4468   -0.3802    0.9263 C.3       1 ATP         0.0784
     20 O2'         1.3993   -1.3703    0.5961 O.3       1 ATP        -0.6085
     21 C1'        -0.6159   -0.9100    1.8769 C.3       1 ATP         0.2186
     22 N9         -1.7127   -1.6108    1.2130 N.pl3     1 ATP        -0.1699
     23 C8         -2.8662   -1.0361    0.7388 C.ar      1 ATP         0.4438
     24 N7         -3.6774   -1.9166    0.1867 N.2       1 ATP        -0.6280
     25 C5         -3.0159   -3.1045    0.3122 C.ar      1 ATP         0.2109
     26 C6         -3.4377   -4.4169   -0.1199 C.ar      1 ATP         0.6180
     27 N6         -4.5720   -4.5691   -0.7080 N.2       1 ATP        -0.8319
     28 N1         -2.4600   -5.3463    0.2071 N.pl3     1 ATP        -0.8664
     29 C2         -1.2595   -5.0554    0.8515 C.ar      1 ATP         0.5952
     30 N3         -0.8555   -3.8803    1.2516 N.2       1 ATP        -0.5599
     31 C4         -1.7946   -2.9457    0.9448 C.ar      1 ATP         0.0076
     32 HOG3        1.8634    8.1937    2.5158 H         1 ATP         0.4101
     33 H5'1       -1.1767    2.0502    0.6368 H         1 ATP         0.0364
     34 H5'2       -0.2080    3.2814    1.4876 H         1 ATP         0.0364
     35 H4'         0.0403    1.7078    3.4343 H         1 ATP         0.0945
     36 H3'         1.5907    1.4859    1.1353 H         1 ATP         0.0703
     37 HO3'        2.1521    0.9800    3.3017 H         1 ATP         0.4099
     38 H2'        -0.0017    0.0018    0.0005 H         1 ATP         0.0676
     39 HO2'        0.9369   -2.0558    0.0825 H         1 ATP         0.4291
     40 H1'        -0.1998   -1.6319    2.6178 H         1 ATP         0.0950
     41 H8         -3.0558    0.0252    0.8256 H         1 ATP         0.1135
     42 HN62       -4.7047   -5.5592   -0.9421 H         1 ATP         0.3588
     43 H2         -0.6372   -5.9505    1.0077 H         1 ATP         0.0302
     44 H44        -2.6338   -6.3155   -0.0469 H         1 ATP         0.4215
@<TRIPOS>BOND
     1    1    2 2
     2    1    3 1
     3    1    4 1
     4    1    8 1
     5    4   32 1
     6    5    6 2
     7    5    7 1
     8    5    8 1
     9    5   12 1
    10    9   10 2
    11    9   11 1
    12    9   12 1
    13    9   13 1
    14   13   14 1
    15   14   15 1
    16   14   33 1
    17   14   34 1
    18   15   16 1
    19   15   17 1
    20   15   35 1
    21   16   21 1
    22   17   18 1
    23   17   19 1
    24   17   36 1
    25   18   37 1
    26   19   20 1
    27   19   21 1
    28   19   38 1
    29   20   39 1
    30   21   22 1
    31   21   40 1
    32   22   23 ar
    33   22   31 ar
    34   23   24 ar
    35   23   41 1
    36   24   25 ar
    37   25   26 ar
    38   25   31 ar
    39   26   27 2
    40   26   28 ar
    41   27   42 1
    42   28   29 ar
    43   28   44 1
    44   29   30 ar
    45   29   43 1
    46   30   31 ar
@<TRIPOS>SUBSTRUCTURE
     1 ATP         1 GROUP 0 A     ****
@<TRIPOS>MOLECULE
[[[3,4-dihydroxy-5-(6-imino-1~{H}-purin-9-yl)tetrahydrofuran-2-yl]methoxy-oxido-phosphoryl]oxy-oxido-phosphoryl] hydrogen phosphate
   44    46     1     0     0
SMALL
USER_CHARGES

@<TRIPOS>ATOM
      1 PG         -1.3795    4.1356   -4.5068 P.3       1 ATP         1.5257
      2 O1G        -1.2194    2.8924   -5.3530 O.co2     1 ATP        -0.8737
      3 O2G        -0.8881    5.4790   -4.9982 O.co2     1 ATP        -0.8737
      4 O3G        -2.9513    4.2797   -4.0889 O.3       1 ATP        -0.7971
      5 PB          0.7922    3.5943   -2.5744 P.3       1 ATP         1.6824
      6 O1B         1.2506    2.2738   -3.1521 O.co2     1 ATP        -0.8925
      7 O2B         1.5823    4.8642   -2.7993 O.co2     1 ATP        -0.8925
      8 O3B        -0.7553    3.8538   -3.0253 O.3       1 ATP        -0.8047
      9 PA         -0.0889    4.4444    0.1193 P.3       1 ATP         1.5908
     10 O1A        -1.5455    4.6750   -0.2201 O.co2     1 ATP        -0.8932
     11 O2A         0.8625    5.6104    0.2774 O.co2     1 ATP        -0.8932
     12 O3A         0.5468    3.4071   -0.9714 O.3       1 ATP        -0.8088
     13 O5'         0.0178    3.5131    1.4595 O.3       1 ATP        -0.5646
     14 C5'        -0.8811    2.4285    1.6206 C.3       1 ATP         0.2204
     15 C4'        -0.1994    1.3333    2.4288 C.3       1 ATP         0.0965
     16 O4'        -1.1285    0.2356    2.5840 O.3       1 ATP        -0.3907
     17 C3'         1.0324    0.7610    1.7344 C.3       1 ATP         0.0763
     18 O3'         1.9175    0.2377    2.7247 O.3       1 ATP        -0.5884
     19 C2'         0.4468   -0.3802    0.9263 C.3       1 ATP         0.0784
     20 O2'         1.3993   -1.3703    0.5961 O.3       1 ATP        -0.6085
     21 C1'        -0.6159   -0.9100    1.8769 C.3       1 ATP         0.2186
     22 N9         -1.7127   -1.6108    1.2130 N.pl3     1 ATP        -0.1699
     23 C8         -2.8662   -1.0361    0.7388 C.ar      1 ATP         0.4438
     24 N7         -3.6774   -1.9166    0.1867 N.2       1 ATP        -0.6280
     25 C5         -3.0159   -3.1045    0.3122 C.ar      1 ATP         0.2109
     26 C6         -3.4377   -4.4169   -0.1199 C.ar      1 ATP         0.6180
     27 N6         -4.5720   -4.5691   -0.7080 N.2       1 ATP        -0.8319
     28 N1         -2.4600   -5.3463    0.2071 N.pl3     1 ATP        -0.8664
     29 C2         -1.2595   -5.0554    0.8515 C.ar      1 ATP         0.5952
     30 N3         -0.8555   -3.8803    1.2516 N.2       1 ATP        -0.5599
     31 C4         -1.7946   -2.9457    0.9448 C.ar      1 ATP         0.0076
     32 HOG3       -3.2188    5.0434   -3.5343 H         1 ATP         0.4101
     33 H5'1       -1.7771    2.7849    2.1387 H         1 ATP         0.0364
     34 H5'2       -1.1654    2.0541    0.6320 H         1 ATP         0.0364
     35 H4'         0.0403    1.7078    3.4343 H         1 ATP         0.0945
     36 H3'         1.5907    1.4859    1.1353 H         1 ATP         0.0703
     37 HO3'        2.6839   -0.1150    2.2479 H         1 ATP         0.4099
     38 H2'        -0.0017    0.0018    0.0005 H         1 ATP         0.0676
     39 HO2'        2.0953   -0.9375    0.0709 H         1 ATP         0.4291
     40 H1'        -0.1998   -1.6319    2.6178 H         1 ATP         0.0950
     41 H8         -3.0558    0.0252    0.8256 H         1 ATP         0.1135
     42 HN62       -4.7047   -5.5592   -0.9421 H         1 ATP         0.3588
     43 H2         -0.6372   -5.9505    1.0077 H         1 ATP         0.0302
     44 H44        -2.6338   -6.3155   -0.0469 H         1 ATP         0.4215
@<TRIPOS>BOND
     1    1    2 2
     2    1    3 1
     3    1    4 1
     4    1    8 1
     5    4   32 1
     6    5    6 2
     7    5    7 1
     8    5    8 1
     9    5   12 1
    10    9   10 2
    11    9   11 1
    12    9   12 1
    13    9   13 1
    14   13   14 1
    15   14   15 1
    16   14   33 1
    17   14   34 1
    18   15   16 1
    19   15   17 1
    20   15   35 1
    21   16   21 1
    22   17   18 1
    23   17   19 1
    24   17   36 1
    25   18   37 1
    26   19   20 1
    27   19   21 1
    28   19   38 1
    29   20   39 1
    30   21   22 1
    31   21   40 1
    32   22   23 ar
    33   22   31 ar
    34   23   24 ar
    35   23   41 1
    36   24   25 ar
    37   25   26 ar
    38   25   31 ar
    39   26   27 2
    40   26   28 ar
    41   27   42 1
    42   28   29 ar
    43   28   44 1
    44   29   30 ar
    45   29   43 1
    46   30   31 ar
@<TRIPOS>SUBSTRUCTURE
     1 ATP         1 GROUP 0 A     ****
@<TRIPOS>MOLECULE
[[[3,4-dihydroxy-5-(6-imino-1~{H}-purin-9-yl)tetrahydrofuran-2-yl]methoxy-oxido-phosphoryl]oxy-oxido-phosphoryl] hydrogen phosphate
   44    46     1     0     0
SMALL
USER_CHARGES

@<TRIPOS>ATOM
      1 PG         -4.4605    8.5184    2.5988 P.3       1 ATP         1.5257
      2 O1G        -5.0879    8.8645    1.2668 O.co2     1 ATP        -0.8737
      3 O2G        -3.6507    9.5402    3.3654 O.co2     1 ATP        -0.8737
      4 O3G        -5.6241    7.9341    3.5839 O.3       1 ATP        -0.7971
      5 PB         -2.2058    6.9006    1.5779 P.3       1 ATP         1.6824
      6 O1B        -2.5236    7.0206    0.1041 O.co2     1 ATP        -0.8925
      7 O2B        -1.0852    7.6996    2.2052 O.co2     1 ATP        -0.8925
      8 O3B        -3.5738    7.1586    2.4309 O.3       1 ATP        -0.8047
      9 PA         -2.9646    4.0418    1.6587 P.3       1 ATP         1.5908
     10 O1A        -3.0699    3.8298    0.1639 O.co2     1 ATP        -0.8932
     11 O2A        -4.2078    4.1934    2.5079 O.co2     1 ATP        -0.8932
     12 O3A        -1.9910    5.3235    1.9402 O.3       1 ATP        -0.8088
     13 O5'        -2.0401    2.8620    2.3128 O.3       1 ATP        -0.5646
     14 C5'        -0.8811    2.4285    1.6206 C.3       1 ATP         0.2204
     15 C4'        -0.1994    1.3333    2.4288 C.3       1 ATP         0.0965
     16 O4'        -1.1285    0.2356    2.5840 O.3       1 ATP        -0.3907
     17 C3'         1.0324    0.7610    1.7344 C.3       1 ATP         0.0763
     18 O3'         1.9175    0.2377    2.7247 O.3       1 ATP        -0.5884
     19 C2'         0.4468   -0.3802    0.9263 C.3       1 ATP         0.0784
     20 O2'         1.3993   -1.3703    0.5961 O.3       1 ATP        -0.6085
     21 C1'        -0.6159   -0.9100    1.8769 C.3       1 ATP         0.2186
     22 N9         -1.7127   -1.6108    1.2130 N.pl3     1 ATP        -0.1699
     23 C8         -1.7690   -2.9583    0.9549 C.ar      1 ATP         0.4438
     24 N7         -2.8827   -3.3076    0.3418 N.2       1 ATP        -0.6280
     25 C5         -3.5683   -2.1351    0.2017 C.ar      1 ATP         0.2109
     26 C6         -4.8617   -1.9185   -0.4044 C.ar      1 ATP         0.6180
     27 N6         -5.5166   -2.9094   -0.8993 N.2       1 ATP        -0.8319
     28 N1         -5.1837   -0.5701   -0.3344 N.pl3     1 ATP        -0.8664
     29 C2         -4.3821    0.4180    0.2330 C.ar      1 ATP         0.5952
     30 N3         -3.2117    0.2488    0.7860 N.2       1 ATP        -0.5599
     31 C4         -2.8672   -1.0657    0.7327 C.ar      1 ATP         0.0076
     32 HOG3       -5.3735    7.6623    4.4925 H         1 ATP         0.4101
     33 H5'1       -1.1767    2.0502    0.6368 H         1 ATP         0.0364
     34 H5'2       -0.2080    3.2814    1.4876 H         1 ATP         0.0364
     35 H4'         0.0403    1.7078    3.4343 H         1 ATP         0.0945
     36 H3'         1.5907    1.4859    1.1353 H         1 ATP         0.0703
     37 HO3'        2.6839   -0.1150    2.2479 H         1 ATP         0.4099
     38 H2'        -0.0017    0.0018    0.0005 H         1 ATP         0.0676
     39 HO2'        2.0953   -0.9375    0.0709 H         1 ATP         0.4291
     40 H1'        -0.1998   -1.6319    2.6178 H         1 ATP         0.0950
     41 H8         -0.9697   -3.6300    1.2371 H         1 ATP         0.1135
     42 HN62       -6.4060   -2.5723   -1.2840 H         1 ATP         0.3588
     43 H2         -4.8409    1.4176    0.1757 H         1 ATP         0.0302
     44 H44        -6.0768   -0.2826   -0.7263 H         1 ATP         0.4215
@<TRIPOS>BOND
     1    1    2 2
     2    1    3 1
     3    1    4 1
     4    1    8 1
     5    4   32 1
     6    5    6 2
     7    5    7 1
     8    5    8 1
     9    5   12 1
    10    9   10 2
    11    9   11 1
    12    9   12 1
    13    9   13 1
    14   13   14 1
    15   14   15 1
    16   14   33 1
    17   14   34 1
    18   15   16 1
    19   15   17 1
    20   15   35 1
    21   16   21 1
    22   17   18 1
    23   17   19 1
    24   17   36 1
    25   18   37 1
    26   19   20 1
    27   19   21 1
    28   19   38 1
    29   20   39 1
    30   21   22 1
    31   21   40 1
    32   22   23 ar
    33   22   31 ar
    34   23   24 ar
    35   23   41 1
    36   24   25 ar
    37   25   26 ar
    38   25   31 ar
    39   26   27 2
    40   26   28 ar
    41   27   42 1
    42   28   29 ar
    43   28   44 1
    44   29   30 ar
    45   29   43 1
    46   30   31 ar
@<TRIPOS>SUBSTRUCTURE
     1 ATP         1 GROUP 0 A     ****
@<TRIPOS>MOLECULE
[[[3,4-dihydroxy-5-(6-imino-1~{H}-purin-9-yl)tetrahydrofuran-2-yl]methoxy-oxido-phosphoryl]oxy-oxido-phosphoryl] hydrogen phosphate
   44    46     1     0     0
SMALL
USER_CHARGES

@<TRIPOS>ATOM
      1 PG          1.9779    1.5060   -4.2998 P.3       1 ATP         1.5257
      2 O1G         0.8833    1.6255   -5.3367 O.co2     1 ATP        -0.8737
      3 O2G         2.6468    0.1776   -4.0252 O.co2     1 ATP        -0.8737
      4 O3G         3.1339    2.6088   -4.6366 O.3       1 ATP        -0.7971
      5 PB          0.7922    3.5943   -2.5744 P.3       1 ATP         1.6824
      6 O1B         1.8526    4.6525   -2.7822 O.co2     1 ATP        -0.8925
      7 O2B        -0.5510    3.6853   -3.2635 O.co2     1 ATP        -0.8925
      8 O3B         1.4442    2.1310   -2.8897 O.3       1 ATP        -0.8047
      9 PA         -0.0889    4.4444    0.1193 P.3       1 ATP         1.5908
     10 O1A        -1.5455    4.6750   -0.2201 O.co2     1 ATP        -0.8932
     11 O2A         0.8625    5.6104    0.2774 O.co2     1 ATP        -0.8932
     12 O3A         0.5468    3.4071   -0.9714 O.3       1 ATP        -0.8088
     13 O5'         0.0178    3.5131    1.4595 O.3       1 ATP        -0.5646
     14 C5'        -0.8811    2.4285    1.6206 C.3       1 ATP         0.2204
     15 C4'        -0.1994    1.3333    2.4288 C.3       1 ATP         0.0965
     16 O4'        -1.1285    0.2356    2.5840 O.3       1 ATP        -0.3907
     17 C3'         1.0324    0.7610    1.7344 C.3       1 ATP         0.0763
     18 O3'         1.9175    0.2377    2.7247 O.3       1 ATP        -0.5884
     19 C2'         0.4468   -0.3802    0.9263 C.3       1 ATP         0.0784
     20 O2'         1.3993   -1.3703    0.5961 O.3       1 ATP        -0.6085
     21 C1'        -0.6159   -0.9100    1.8769 C.3       1 ATP         0.2186
     22 N9         -1.7127   -1.6108    1.2130 N.pl3     1 ATP        -0.1699
     23 C8         -2.8662   -1.0361    0.7388 C.ar      1 ATP         0.4438
     24 N7         -3.6774   -1.9166    0.1867 N.2       1 ATP        -0.6280
     25 C5         -3.0159   -3.1045    0.3122 C.ar      1 ATP         0.2109
     26 C6         -3.4377   -4.4169   -0.1199 C.ar      1 ATP         0.6180
     27 N6         -4.5720   -4.5691   -0.7080 N.2       1 ATP        -0.8319
     28 N1         -2.4600   -5.3463    0.2071 N.pl3     1 ATP        -0.8664
     29 C2         -1.2595   -5.0554    0.8515 C.ar      1 ATP         0.5952
     30 N3         -0.8555   -3.8803    1.2516 N.2       1 ATP        -0.5599
     31 C4         -1.7946   -2.9457    0.9448 C.ar      1 ATP         0.0076
     32 HOG3        3.9183    2.6571   -4.0495 H         1 ATP         0.4101
     33 H5'1       -1.7771    2.7849    2.1387 H         1 ATP         0.0364
     34 H5'2       -1.1654    2.0541    0.6320 H         1 ATP         0.0364
     35 H4'         0.0403    1.7078    3.4343 H         1 ATP         0.0945
     36 H3'         1.5907    1.4859    1.1353 H         1 ATP         0.0703
     37 HO3'        2.6839   -0.1150    2.2479 H         1 ATP         0.4099
     38 H2'        -0.0017    0.0018    0.0005 H         1 ATP         0.0676
     39 HO2'        2.0953   -0.9375    0.0709 H         1 ATP         0.4291
     40 H1'        -0.1998   -1.6319    2.6178 H         1 ATP         0.0950
     41 H8         -3.0558    0.0252    0.8256 H         1 ATP         0.1135
     42 HN62       -4.7047   -5.5592   -0.9421 H         1 ATP         0.3588
     43 H2         -0.6372   -5.9505    1.0077 H         1 ATP         0.0302
     44 H44        -2.6338   -6.3155   -0.0469 H         1 ATP         0.4215
@<TRIPOS>BOND
     1    1    2 2
     2    1    3 1
     3    1    4 1
     4    1    8 1
     5    4   32 1
     6    5    6 2
     7    5    7 1
     8    5    8 1
     9    5   12 1
    10    9   10 2
    11    9   11 1
    12    9   12 1
    13    9   13 1
    14   13   14 1
    15   14   15 1
    16   14   33 1
    17   14   34 1
    18   15   16 1
    19   15   17 1
    20   15   35 1
    21   16   21 1
    22   17   18 1
    23   17   19 1
    24   17   36 1
    25   18   37 1
    26   19   20 1
    27   19   21 1
    28   19   38 1
    29   20   39 1
    30   21   22 1
    31   21   40 1
    32   22   23 ar
    33   22   31 ar
    34   23   24 ar
    35   23   41 1
    36   24   25 ar
    37   25   26 ar
    38   25   31 ar
    39   26   27 2
    40   26   28 ar
    41   27   42 1
    42   28   29 ar
    43   28   44 1
    44   29   30 ar
    45   29   43 1
    46   30   31 ar
@<TRIPOS>SUBSTRUCTURE
     1 ATP         1 GROUP 0 A     ****
@<TRIPOS>MOLECULE
[[[3,4-dihydroxy-5-(6-imino-1~{H}-purin-9-yl)tetrahydrofuran-2-yl]methoxy-oxido-phosphoryl]oxy-oxido-phosphoryl] hydrogen phosphate
   44    46     1     0     0
SMALL
USER_CHARGES

@<TRIPOS>ATOM
      1 PG          2.5149    5.7029   -3.7276 P.3       1 ATP         1.5257
      2 O1G         1.4542    6.4211   -4.5317 O.co2     1 ATP        -0.8737
      3 O2G         3.5230    4.7995   -4.4023 O.co2     1 ATP        -0.8737
      4 O3G         3.3227    6.8047   -2.8336 O.3       1 ATP        -0.7971
      5 PB          0.7922    3.5943   -2.5744 P.3       1 ATP         1.6824
      6 O1B        -0.5079    4.0232   -3.2171 O.co2     1 ATP        -0.8925
      7 O2B         1.5643    2.4002   -3.0898 O.co2     1 ATP        -0.8925
      8 O3B         1.7960    4.8805   -2.5148 O.3       1 ATP        -0.8047
      9 PA         -0.0889    4.4444    0.1193 P.3       1 ATP         1.5908
     10 O1A        -1.5455    4.6750   -0.2201 O.co2     1 ATP        -0.8932
     11 O2A         0.8625    5.6104    0.2774 O.co2     1 ATP        -0.8932
     12 O3A         0.5468    3.4071   -0.9714 O.3       1 ATP        -0.8088
     13 O5'         0.0178    3.5131    1.4595 O.3       1 ATP        -0.5646
     14 C5'        -0.8811    2.4285    1.6206 C.3       1 ATP         0.2204
     15 C4'        -0.1994    1.3333    2.4288 C.3       1 ATP         0.0965
     16 O4'        -1.1285    0.2356    2.5840 O.3       1 ATP        -0.3907
     17 C3'         1.0324    0.7610    1.7344 C.3       1 ATP         0.0763
     18 O3'         1.9175    0.2377    2.7247 O.3       1 ATP        -0.5884
     19 C2'         0.4468   -0.3802    0.9263 C.3       1 ATP         0.0784
     20 O2'         1.3993   -1.3703    0.5961 O.3       1 ATP        -0.6085
     21 C1'        -0.6159   -0.9100    1.8769 C.3       1 ATP         0.2186
     22 N9         -1.7127   -1.6108    1.2130 N.pl3     1 ATP        -0.1699
     23 C8         -2.8662   -1.0361    0.7388 C.ar      1 ATP         0.4438
     24 N7         -3.6774   -1.9166    0.1867 N.2       1 ATP        -0.6280
     25 C5         -3.0159   -3.1045    0.3122 C.ar      1 ATP         0.2109
     26 C6         -3.4377   -4.4169   -0.1199 C.ar      1 ATP         0.6180
     27 N6         -4.5720   -4.5691   -0.7080 N.2       1 ATP        -0.8319
     28 N1         -2.4600   -5.3463    0.2071 N.pl3     1 ATP        -0.8664
     29 C2         -1.2595   -5.0554    0.8515 C.ar      1 ATP         0.5952
     30 N3         -0.8555   -3.8803    1.2516 N.2       1 ATP        -0.5599
     31 C4         -1.7946   -2.9457    0.9448 C.ar      1 ATP         0.0076
     32 HOG3        4.0488    6.4927   -2.2525 H         1 ATP         0.4101
     33 H5'1       -1.7771    2.7849    2.1387 H         1 ATP         0.0364
     34 H5'2       -1.1654    2.0541    0.6320 H         1 ATP         0.0364
     35 H4'         0.0403    1.7078    3.4343 H         1 ATP         0.0945
     36 H3'         1.5907    1.4859    1.1353 H         1 ATP         0.0703
     37 HO3'        2.6839   -0.1150    2.2479 H         1 ATP         0.4099
     38 H2'        -0.0017    0.0018    0.0005 H         1 ATP         0.0676
     39 HO2'        2.0953   -0.9375    0.0709 H         1 ATP         0.4291
     40 H1'        -0.1998   -1.6319    2.6178 H         1 ATP         0.0950
     41 H8         -3.0558    0.0252    0.8256 H         1 ATP         0.1135
     42 HN62       -4.7047   -5.5592   -0.9421 H         1 ATP         0.3588
     43 H2         -0.6372   -5.9505    1.0077 H         1 ATP         0.0302
     44 H44        -2.6338   -6.3155   -0.0469 H         1 ATP         0.4215
@<TRIPOS>BOND
     1    1    2 2
     2    1    3 1
     3    1    4 1
     4    1    8 1
     5    4   32 1
     6    5    6 2
     7    5    7 1
     8    5    8 1
     9    5   12 1
    10    9   10 2
    11    9   11 1
    12    9   12 1
    13    9   13 1
    14   13   14 1
    15   14   15 1
    16   14   33 1
    17   14   34 1
    18   15   16 1
    19   15   17 1
    20   15   35 1
    21   16   21 1
    22   17   18 1
    23   17   19 1
    24   17   36 1
    25   18   37 1
    26   19   20 1
    27   19   21 1
    28   19   38 1
    29   20   39 1
    30   21   22 1
    31   21   40 1
    32   22   23 ar
    33   22   31 ar
    34   23   24 ar
    35   23   41 1
    36   24   25 ar
    37   25   26 ar
    38   25   31 ar
    39   26   27 2
    40   26   28 ar
    41   27   42 1
    42   28   29 ar
    43   28   44 1
    44   29   30 ar
    45   29   43 1
    46   30   31 ar
@<TRIPOS>SUBSTRUCTURE
     1 ATP         1 GROUP 0 A     ****
@<TRIPOS>MOLECULE
[[[3,4-dihydroxy-5-(6-imino-1~{H}-purin-9-yl)tetrahydrofuran-2-yl]methoxy-oxido-phosphoryl]oxy-oxido-phosphoryl] hydrogen phosphate
   44    46     1     0     0
SMALL
USER_CHARGES

@<TRIPOS>ATOM
      1 PG         -5.3253    2.0517   -3.1268 P.3       1 ATP         1.5257
      2 O1G        -6.7925    2.3723   -2.9478 O.co2     1 ATP        -0.8737
      3 O2G        -4.8818    0.6974   -3.6334 O.co2     1 ATP        -0.8737
      4 O3G        -4.6541    3.2033   -4.0699 O.3       1 ATP        -0.7971
      5 PB         -4.5113    3.7495   -0.8468 P.3       1 ATP         1.6824
      6 O1B        -3.8138    4.8314   -1.6409 O.co2     1 ATP        -0.8925
      7 O2B        -5.8878    3.9720   -0.2608 O.co2     1 ATP        -0.8925
      8 O3B        -4.5362    2.3808   -1.7366 O.3       1 ATP        -0.8047
      9 PA         -2.9646    4.0418    1.6587 P.3       1 ATP         1.5908
     10 O1A        -4.1353    4.3308    2.5732 O.co2     1 ATP        -0.8932
     11 O2A        -2.0512    5.1559    1.1958 O.co2     1 ATP        -0.8932
     12 O3A        -3.5115    3.2453    0.3410 O.3       1 ATP        -0.8088
     13 O5'        -2.0401    2.8620    2.3128 O.3       1 ATP        -0.5646
     14 C5'        -0.8811    2.4285    1.6206 C.3       1 ATP         0.2204
     15 C4'        -0.1994    1.3333    2.4288 C.3       1 ATP         0.0965
     16 O4'        -1.1285    0.2356    2.5840 O.3       1 ATP        -0.3907
     17 C3'         1.0324    0.7610    1.7344 C.3       1 ATP         0.0763
     18 O3'         1.9175    0.2377    2.7247 O.3       1 ATP        -0.5884
     19 C2'         0.4468   -0.3802    0.9263 C.3       1 ATP         0.0784
     20 O2'         1.3993   -1.3703    0.5961 O.3       1 ATP        -0.6085
     21 C1'        -0.6159   -0.9100    1.8769 C.3       1 ATP         0.2186
     22 N9         -1.7127   -1.6108    1.2130 N.pl3     1 ATP        -0.1699
     23 C8         -2.5485   -1.0808    0.2609 C.ar      1 ATP         0.4438
     24 N7         -3.4476   -1.9486   -0.1593 N.2       1 ATP        -0.6280
     25 C5         -3.1762   -3.0816    0.5530 C.ar      1 ATP         0.2109
     26 C6         -3.8510   -4.3579    0.5006 C.ar      1 ATP         0.6180
     27 N6         -4.8468   -4.5293   -0.2961 N.2       1 ATP        -0.8319
     28 N1         -3.2499   -5.2342    1.3937 N.pl3     1 ATP        -0.8664
     29 C2         -2.1646   -4.9275    2.2116 C.ar      1 ATP         0.5952
     30 N3         -1.5382   -3.7840    2.2778 N.2       1 ATP        -0.5599
     31 C4         -2.1054   -2.9018    1.4120 C.ar      1 ATP         0.0076
     32 HOG3       -3.6984    3.1359   -4.2804 H         1 ATP         0.4101
     33 H5'1       -1.1767    2.0502    0.6368 H         1 ATP         0.0364
     34 H5'2       -0.2080    3.2814    1.4876 H         1 ATP         0.0364
     35 H4'         0.0403    1.7078    3.4343 H         1 ATP         0.0945
     36 H3'         1.5907    1.4859    1.1353 H         1 ATP         0.0703
     37 HO3'        2.6839   -0.1150    2.2479 H         1 ATP         0.4099
     38 H2'        -0.0017    0.0018    0.0005 H         1 ATP         0.0676
     39 HO2'        0.9369   -2.0558    0.0825 H         1 ATP         0.4291
     40 H1'        -0.1998   -1.6319    2.6178 H         1 ATP         0.0950
     41 H8         -2.4515   -0.0599   -0.0829 H         1 ATP         0.1135
     42 HN62       -5.1990   -5.4882   -0.2005 H         1 ATP         0.3588
     43 H2         -1.8555   -5.7783    2.8388 H         1 ATP         0.0302
     44 H44        -3.6312   -6.1750    1.4526 H         1 ATP         0.4215
@<TRIPOS>BOND
     1    1    2 2
     2    1    3 1
     3    1    4 1
     4    1    8 1
     5    4   32 1
     6    5    6 2
     7    5    7 1
     8    5    8 1
     9    5   12 1
    10    9   10 2
    11    9   11 1
    12    9   12 1
    13    9   13 1
    14   13   14 1
    15   14   15 1
    16   14   33 1
    17   14   34 1
    18   15   16 1
    19   15   17 1
    20   15   35 1
    21   16   21 1
    22   17   18 1
    23   17   19 1
    24   17   36 1
    25   18   37 1
    26   19   20 1
    27   19   21 1
    28   19   38 1
    29   20   39 1
    30   21   22 1
    31   21   40 1
    32   22   23 ar
    33   22   31 ar
    34   23   24 ar
    35   23   41 1
    36   24   25 ar
    37   25   26 ar
    38   25   31 ar
    39   26   27 2
    40   26   28 ar
    41   27   42 1
    42   28   29 ar
    43   28   44 1
    44   29   30 ar
    45   29   43 1
    46   30   31 ar
@<TRIPOS>SUBSTRUCTURE
     1 ATP         1 GROUP 0 A     ****
@<TRIPOS>MOLECULE
[[[3,4-dihydroxy-5-(6-imino-1~{H}-purin-9-yl)tetrahydrofuran-2-yl]methoxy-oxido-phosphoryl]oxy-oxido-phosphoryl] hydrogen phosphate
   44    46     1     0     0
SMALL
USER_CHARGES

@<TRIPOS>ATOM
      1 PG         -0.2356    9.0082    2.2260 P.3       1 ATP         1.5257
      2 O1G        -1.1104    9.8365    3.1402 O.co2     1 ATP        -0.8737
      3 O2G         0.0572    9.4586    0.8121 O.co2     1 ATP        -0.8737
      4 O3G         1.1826    8.7231    2.9833 O.3       1 ATP        -0.7971
      5 PB         -2.2058    6.9006    1.5779 P.3       1 ATP         1.6824
      6 O1B        -3.3526    7.4364    2.4056 O.co2     1 ATP        -0.8925
      7 O2B        -2.1834    7.0605    0.0740 O.co2     1 ATP        -0.8925
      8 O3B        -0.8058    7.4794    2.1867 O.3       1 ATP        -0.8047
      9 PA         -2.9646    4.0418    1.6587 P.3       1 ATP         1.5908
     10 O1A        -3.0699    3.8298    0.1639 O.co2     1 ATP        -0.8932
     11 O2A        -4.2078    4.1934    2.5079 O.co2     1 ATP        -0.8932
     12 O3A        -1.9910    5.3235    1.9402 O.3       1 ATP        -0.8088
     13 O5'        -2.0401    2.8620    2.3128 O.3       1 ATP        -0.5646
     14 C5'        -0.8811    2.4285    1.6206 C.3       1 ATP         0.2204
     15 C4'        -0.1994    1.3333    2.4288 C.3       1 ATP         0.0965
     16 O4'        -1.1285    0.2356    2.5840 O.3       1 ATP        -0.3907
     17 C3'         1.0324    0.7610    1.7344 C.3       1 ATP         0.0763
     18 O3'         1.9175    0.2377    2.7247 O.3       1 ATP        -0.5884
     19 C2'         0.4468   -0.3802    0.9263 C.3       1 ATP         0.0784
     20 O2'         1.3993   -1.3703    0.5961 O.3       1 ATP        -0.6085
     21 C1'        -0.6159   -0.9100    1.8769 C.3       1 ATP         0.2186
     22 N9         -1.7127   -1.6108    1.2130 N.pl3     1 ATP        -0.1699
     23 C8         -1.7690   -2.9583    0.9549 C.ar      1 ATP         0.4438
     24 N7         -2.8827   -3.3076    0.3418 N.2       1 ATP        -0.6280
     25 C5         -3.5683   -2.1351    0.2017 C.ar      1 ATP         0.2109
     26 C6         -4.8617   -1.9185   -0.4044 C.ar      1 ATP         0.6180
     27 N6         -5.5166   -2.9094   -0.8993 N.2       1 ATP        -0.8319
     28 N1         -5.1837   -0.5701   -0.3344 N.pl3     1 ATP        -0.8664
     29 C2         -4.3821    0.4180    0.2330 C.ar      1 ATP         0.5952
     30 N3         -3.2117    0.2488    0.7860 N.2       1 ATP        -0.5599
     31 C4         -2.8672   -1.0657    0.7327 C.ar      1 ATP         0.0076
     32 HOG3        1.8634    8.1937    2.5158 H         1 ATP         0.4101
     33 H5'1       -1.1767    2.0502    0.6368 H         1 ATP         0.0364
     34 H5'2       -0.2080    3.2814    1.4876 H         1 ATP         0.0364
     35 H4'         0.0403    1.7078    3.4343 H         1 ATP         0.0945
     36 H3'         1.5907    1.4859    1.1353 H         1 ATP         0.0703
     37 HO3'        2.1521    0.9800    3.3017 H         1 ATP         0.4099
     38 H2'        -0.0017    0.0018    0.0005 H         1 ATP         0.0676
     39 HO2'        0.9369   -2.0558    0.0825 H         1 ATP         0.4291
     40 H1'        -0.1998   -1.6319    2.6178 H         1 ATP         0.0950
     41 H8         -0.9697   -3.6300    1.2371 H         1 ATP         0.1135
     42 HN62       -6.4060   -2.5723   -1.2840 H         1 ATP         0.3588
     43 H2         -4.8409    1.4176    0.1757 H         1 ATP         0.0302
     44 H44        -6.0768   -0.2826   -0.7263 H         1 ATP         0.4215
@<TRIPOS>BOND
     1    1    2 2
     2    1    3 1
     3    1    4 1
     4    1    8 1
     5    4   32 1
     6    5    6 2
     7    5    7 1
     8    5    8 1
     9    5   12 1
    10    9   10 2
    11    9   11 1
    12    9   12 1
    13    9   13 1
    14   13   14 1
    15   14   15 1
    16   14   33 1
    17   14   34 1
    18   15   16 1
    19   15   17 1
    20   15   35 1
    21   16   21 1
    22   17   18 1
    23   17   19 1
    24   17   36 1
    25   18   37 1
    26   19   20 1
    27   19   21 1
    28   19   38 1
    29   20   39 1
    30   21   22 1
    31   21   40 1
    32   22   23 ar
    33   22   31 ar
    34   23   24 ar
    35   23   41 1
    36   24   25 ar
    37   25   26 ar
    38   25   31 ar
    39   26   27 2
    40   26   28 ar
    41   27   42 1
    42   28   29 ar
    43   28   44 1
    44   29   30 ar
    45   29   43 1
    46   30   31 ar
@<TRIPOS>SUBSTRUCTURE
     1 ATP         1 GROUP 0 A     ****
@<TRIPOS>MOLECULE
[[[3,4-dihydroxy-5-(6-imino-1~{H}-purin-9-yl)tetrahydrofuran-2-yl]methoxy-oxido-phosphoryl]oxy-oxido-phosphoryl] hydrogen phosphate
   44    46     1     0     0
SMALL
USER_CHARGES

@<TRIPOS>ATOM
      1 PG         -1.1454    2.1679   -3.3270 P.3       1 ATP         1.5257
      2 O1G        -2.5887    2.3026   -3.7586 O.co2     1 ATP        -0.8737
      3 O2G        -0.7793    1.4315   -2.0576 O.co2     1 ATP        -0.8737
      4 O3G        -0.2921    1.5269   -4.5627 O.3       1 ATP        -0.7971
      5 PB         -0.7639    4.9217   -2.3198 P.3       1 ATP         1.6824
      6 O1B         0.2629    5.9981   -2.5929 O.co2     1 ATP        -0.8925
      7 O2B        -2.2453    5.2232   -2.3633 O.co2     1 ATP        -0.8925
      8 O3B        -0.4599    3.6487   -3.2959 O.3       1 ATP        -0.8047
      9 PA         -0.4665    4.8322    0.6228 P.3       1 ATP         1.5908
     10 O1A        -1.9050    5.1497    0.9698 O.co2     1 ATP        -0.8932
     11 O2A         0.6096    5.8892    0.7429 O.co2     1 ATP        -0.8932
     12 O3A        -0.4148    4.2162   -0.8897 O.3       1 ATP        -0.8088
     13 O5'         0.0178    3.5131    1.4595 O.3       1 ATP        -0.5646
     14 C5'        -0.8811    2.4285    1.6206 C.3       1 ATP         0.2204
     15 C4'        -0.1994    1.3333    2.4288 C.3       1 ATP         0.0965
     16 O4'        -1.1285    0.2356    2.5840 O.3       1 ATP        -0.3907
     17 C3'         1.0324    0.7610    1.7344 C.3       1 ATP         0.0763
     18 O3'         1.9175    0.2377    2.7247 O.3       1 ATP        -0.5884
     19 C2'         0.4468   -0.3802    0.9263 C.3       1 ATP         0.0784
     20 O2'         1.3993   -1.3703    0.5961 O.3       1 ATP        -0.6085
     21 C1'        -0.6159   -0.9100    1.8769 C.3       1 ATP         0.2186
     22 N9         -1.7127   -1.6108    1.2130 N.pl3     1 ATP        -0.1699
     23 C8         -2.8662   -1.0361    0.7388 C.ar      1 ATP         0.4438
     24 N7         -3.6774   -1.9166    0.1867 N.2       1 ATP        -0.6280
     25 C5         -3.0159   -3.1045    0.3122 C.ar      1 ATP         0.2109
     26 C6         -3.4377   -4.4169   -0.1199 C.ar      1 ATP         0.6180
     27 N6         -4.5720   -4.5691   -0.7080 N.2       1 ATP        -0.8319
     28 N1         -2.4600   -5.3463    0.2071 N.pl3     1 ATP        -0.8664
     29 C2         -1.2595   -5.0554    0.8515 C.ar      1 ATP         0.5952
     30 N3         -0.8555   -3.8803    1.2516 N.2       1 ATP        -0.5599
     31 C4         -1.7946   -2.9457    0.9448 C.ar      1 ATP         0.0076
     32 HOG3        0.6691    1.3761   -4.4376 H         1 ATP         0.4101
     33 H5'1       -1.7771    2.7849    2.1387 H         1 ATP         0.0364
     34 H5'2       -1.1654    2.0541    0.6320 H         1 ATP         0.0364
     35 H4'         0.0403    1.7078    3.4343 H         1 ATP         0.0945
     36 H3'         1.5907    1.4859    1.1353 H         1 ATP         0.0703
     37 HO3'        2.1521    0.9800    3.3017 H         1 ATP         0.4099
     38 H2'        -0.0017    0.0018    0.0005 H         1 ATP         0.0676
     39 HO2'        1.7495   -1.7243    1.4324 H         1 ATP         0.4291
     40 H1'        -0.1998   -1.6319    2.6178 H         1 ATP         0.0950
     41 H8         -3.0558    0.0252    0.8256 H         1 ATP         0.1135
     42 HN62       -4.7047   -5.5592   -0.9421 H         1 ATP         0.3588
     43 H2         -0.6372   -5.9505    1.0077 H         1 ATP         0.0302
     44 H44        -2.6338   -6.3155   -0.0469 H         1 ATP         0.4215
@<TRIPOS>BOND
     1    1    2 2
     2    1    3 1
     3    1    4 1
     4    1    8 1
     5    4   32 1
     6    5    6 2
     7    5    7 1
     8    5    8 1
     9    5   12 1
    10    9   10 2
    11    9   11 1
    12    9   12 1
    13    9   13 1
    14   13   14 1
    15   14   15 1
    16   14   33 1
    17   14   34 1
    18   15   16 1
    19   15   17 1
    20   15   35 1
    21   16   21 1
    22   17   18 1
    23   17   19 1
    24   17   36 1
    25   18   37 1
    26   19   20 1
    27   19   21 1
    28   19   38 1
    29   20   39 1
    30   21   22 1
    31   21   40 1
    32   22   23 ar
    33   22   31 ar
    34   23   24 ar
    35   23   41 1
    36   24   25 ar
    37   25   26 ar
    38   25   31 ar
    39   26   27 2
    40   26   28 ar
    41   27   42 1
    42   28   29 ar
    43   28   44 1
    44   29   30 ar
    45   29   43 1
    46   30   31 ar
@<TRIPOS>SUBSTRUCTURE
     1 ATP         1 GROUP 0 A     ****
@<TRIPOS>MOLECULE
[[[3,4-dihydroxy-5-(6-imino-1~{H}-purin-9-yl)tetrahydrofuran-2-yl]methoxy-oxido-phosphoryl]oxy-oxido-phosphoryl] hydrogen phosphate
   44    46     1     0     0
SMALL
USER_CHARGES

@<TRIPOS>ATOM
      1 PG         -7.8693    3.4131    1.9943 P.3       1 ATP         1.5257
      2 O1G        -8.1574    4.3235    3.1672 O.co2     1 ATP        -0.8737
      3 O2G        -8.6070    2.1032    1.8275 O.co2     1 ATP        -0.8737
      4 O3G        -8.0270    4.2759    0.6171 O.3       1 ATP        -0.7971
      5 PB         -5.3881    2.3486    0.7885 P.3       1 ATP         1.6824
      6 O1B        -5.7700    0.8852    0.8020 O.co2     1 ATP        -0.8925
      7 O2B        -5.4239    3.1558   -0.4901 O.co2     1 ATP        -0.8925
      8 O3B        -6.2637    3.1285    1.9246 O.3       1 ATP        -0.8047
      9 PA         -3.0798    3.8627    1.8536 P.3       1 ATP         1.5908
     10 O1A        -3.8220    4.5968    2.9492 O.co2     1 ATP        -0.8932
     11 O2A        -2.6995    4.5681    0.5701 O.co2     1 ATP        -0.8932
     12 O3A        -3.9133    2.5109    1.4692 O.3       1 ATP        -0.8088
     13 O5'        -1.7336    3.1724    2.4750 O.3       1 ATP        -0.5646
     14 C5'        -0.8811    2.4285    1.6206 C.3       1 ATP         0.2204
     15 C4'        -0.1994    1.3333    2.4288 C.3       1 ATP         0.0965
     16 O4'        -1.1285    0.2356    2.5840 O.3       1 ATP        -0.3907
     17 C3'         1.0324    0.7610    1.7344 C.3       1 ATP         0.0763
     18 O3'         1.9175    0.2377    2.7247 O.3       1 ATP        -0.5884
     19 C2'         0.4468   -0.3802    0.9263 C.3       1 ATP         0.0784
     20 O2'         1.3993   -1.3703    0.5961 O.3       1 ATP        -0.6085
     21 C1'        -0.6159   -0.9100    1.8769 C.3       1 ATP         0.2186
     22 N9         -1.7127   -1.6108    1.2130 N.pl3     1 ATP        -0.1699
     23 C8         -2.8662   -1.0361    0.7388 C.ar      1 ATP         0.4438
     24 N7         -3.6774   -1.9166    0.1867 N.2       1 ATP        -0.6280
     25 C5         -3.0159   -3.1045    0.3122 C.ar      1 ATP         0.2109
     26 C6         -3.4377   -4.4169   -0.1199 C.ar      1 ATP         0.6180
     27 N6         -4.5720   -4.5691   -0.7080 N.2       1 ATP        -0.8319
     28 N1         -2.4600   -5.3463    0.2071 N.pl3     1 ATP        -0.8664
     29 C2         -1.2595   -5.0554    0.8515 C.ar      1 ATP         0.5952
     30 N3         -0.8555   -3.8803    1.2516 N.2       1 ATP        -0.5599
     31 C4         -1.7946   -2.9457    0.9448 C.ar      1 ATP         0.0076
     32 HOG3       -7.8708    3.8222   -0.2386 H         1 ATP         0.4101
     33 H5'1       -1.4800    1.9927    0.8146 H         1 ATP         0.0364
     34 H5'2       -0.1367    3.1040    1.1872 H         1 ATP         0.0364
     35 H4'         0.0403    1.7078    3.4343 H         1 ATP         0.0945
     36 H3'         1.5907    1.4859    1.1353 H         1 ATP         0.0703
     37 HO3'        2.6839   -0.1150    2.2479 H         1 ATP         0.4099
     38 H2'        -0.0017    0.0018    0.0005 H         1 ATP         0.0676
     39 HO2'        2.0953   -0.9375    0.0709 H         1 ATP         0.4291
     40 H1'        -0.1998   -1.6319    2.6178 H         1 ATP         0.0950
     41 H8         -3.0558    0.0252    0.8256 H         1 ATP         0.1135
     42 HN62       -4.7047   -5.5592   -0.9421 H         1 ATP         0.3588
     43 H2         -0.6372   -5.9505    1.0077 H         1 ATP         0.0302
     44 H44        -2.6338   -6.3155   -0.0469 H         1 ATP         0.4215
@<TRIPOS>BOND
     1    1    2 2
     2    1    3 1
     3    1    4 1
     4    1    8 1
     5    4   32 1
     6    5    6 2
     7    5    7 1
     8    5    8 1
     9    5   12 1
    10    9   10 2
    11    9   11 1
    12    9   12 1
    13    9   13 1
    14   13   14 1
    15   14   15 1
    16   14   33 1
    17   14   34 1
    18   15   16 1
    19   15   17 1
    20   15   35 1
    21   16   21 1
    22   17   18 1
    23   17   19 1
    24   17   36 1
    25   18   37 1
    26   19   20 1
    27   19   21 1
    28   19   38 1
    29   20   39 1
    30   21   22 1
    31   21   40 1
    32   22   23 ar
    33   22   31 ar
    34   23   24 ar
    35   23   41 1
    36   24   25 ar
    37   25   26 ar
    38   25   31 ar
    39   26   27 2
    40   26   28 ar
    41   27   42 1
    42   28   29 ar
    43   28   44 1
    44   29   30 ar
    45   29   43 1
    46   30   31 ar
@<TRIPOS>SUBSTRUCTURE
     1 ATP         1 GROUP 0 A     ****
@<TRIPOS>MOLECULE
[[[3,4-dihydroxy-5-(6-imino-1~{H}-purin-9-yl)tetrahydrofuran-2-yl]methoxy-oxido-phosphoryl]oxy-oxido-phosphoryl] hydrogen phosphate
   44    46     1     0     0
SMALL
USER_CHARGES

@<TRIPOS>ATOM
      1 PG         -2.9085    6.4483    4.4418 P.3       1 ATP         1.5257
      2 O1G        -2.3783    7.8157    4.8112 O.co2     1 ATP        -0.8737
      3 O2G        -2.0660    5.2081    4.6412 O.co2     1 ATP        -0.8737
      4 O3G        -4.3417    6.2276    5.1922 O.3       1 ATP        -0.7971
      5 PB         -2.6061    6.6739    1.5090 P.3       1 ATP         1.6824
      6 O1B        -3.5484    6.4622    0.3451 O.co2     1 ATP        -0.8925
      7 O2B        -1.7629    7.9249    1.6168 O.co2     1 ATP        -0.8925
      8 O3B        -3.4407    6.4839    2.8993 O.3       1 ATP        -0.8047
      9 PA         -0.4665    4.8322    0.6228 P.3       1 ATP         1.5908
     10 O1A         0.6558    5.8467    0.5864 O.co2     1 ATP        -0.8932
     11 O2A        -1.1281    4.3644   -0.6552 O.co2     1 ATP        -0.8932
     12 O3A        -1.6297    5.3718    1.6355 O.3       1 ATP        -0.8088
     13 O5'         0.0178    3.5131    1.4595 O.3       1 ATP        -0.5646
     14 C5'        -0.8811    2.4285    1.6206 C.3       1 ATP         0.2204
     15 C4'        -0.1994    1.3333    2.4288 C.3       1 ATP         0.0965
     16 O4'        -1.1285    0.2356    2.5840 O.3       1 ATP        -0.3907
     17 C3'         1.0324    0.7610    1.7344 C.3       1 ATP         0.0763
     18 O3'         1.9175    0.2377    2.7247 O.3       1 ATP        -0.5884
     19 C2'         0.4468   -0.3802    0.9263 C.3       1 ATP         0.0784
     20 O2'         1.3993   -1.3703    0.5961 O.3       1 ATP        -0.6085
     21 C1'        -0.6159   -0.9100    1.8769 C.3       1 ATP         0.2186
     22 N9         -1.7127   -1.6108    1.2130 N.pl3     1 ATP        -0.1699
     23 C8         -2.8662   -1.0361    0.7388 C.ar      1 ATP         0.4438
     24 N7         -3.6774   -1.9166    0.1867 N.2       1 ATP        -0.6280
     25 C5         -3.0159   -3.1045    0.3122 C.ar      1 ATP         0.2109
     26 C6         -3.4377   -4.4169   -0.1199 C.ar      1 ATP         0.6180
     27 N6         -4.5720   -4.5691   -0.7080 N.2       1 ATP        -0.8319
     28 N1         -2.4600   -5.3463    0.2071 N.pl3     1 ATP        -0.8664
     29 C2         -1.2595   -5.0554    0.8515 C.ar      1 ATP         0.5952
     30 N3         -0.8555   -3.8803    1.2516 N.2       1 ATP        -0.5599
     31 C4         -1.7946   -2.9457    0.9448 C.ar      1 ATP         0.0076
     32 HOG3       -4.8168    5.3809    5.0518 H         1 ATP         0.4101
     33 H5'1       -1.7771    2.7849    2.1387 H         1 ATP         0.0364
     34 H5'2       -1.1654    2.0541    0.6320 H         1 ATP         0.0364
     35 H4'         0.0403    1.7078    3.4343 H         1 ATP         0.0945
     36 H3'         1.5907    1.4859    1.1353 H         1 ATP         0.0703
     37 HO3'        2.6839   -0.1150    2.2479 H         1 ATP         0.4099
     38 H2'        -0.0017    0.0018    0.0005 H         1 ATP         0.0676
     39 HO2'        2.0953   -0.9375    0.0709 H         1 ATP         0.4291
     40 H1'        -0.1998   -1.6319    2.6178 H         1 ATP         0.0950
     41 H8         -3.0558    0.0252    0.8256 H         1 ATP         0.1135
     42 HN62       -4.7047   -5.5592   -0.9421 H         1 ATP         0.3588
     43 H2         -0.6372   -5.9505    1.0077 H         1 ATP         0.0302
     44 H44        -2.6338   -6.3155   -0.0469 H         1 ATP         0.4215
@<TRIPOS>BOND
     1    1    2 2
     2    1    3 1
     3    1    4 1
     4    1    8 1
     5    4   32 1
     6    5    6 2
     7    5    7 1
     8    5    8 1
     9    5   12 1
    10    9   10 2
    11    9   11 1
    12    9   12 1
    13    9   13 1
    14   13   14 1
    15   14   15 1
    16   14   33 1
    17   14   34 1
    18   15   16 1
    19   15   17 1
    20   15   35 1
    21   16   21 1
    22   17   18 1
    23   17   19 1
    24   17   36 1
    25   18   37 1
    26   19   20 1
    27   19   21 1
    28   19   38 1
    29   20   39 1
    30   21   22 1
    31   21   40 1
    32   22   23 ar
    33   22   31 ar
    34   23   24 ar
    35   23   41 1
    36   24   25 ar
    37   25   26 ar
    38   25   31 ar
    39   26   27 2
    40   26   28 ar
    41   27   42 1
    42   28   29 ar
    43   28   44 1
    44   29   30 ar
    45   29   43 1
    46   30   31 ar
@<TRIPOS>SUBSTRUCTURE
     1 ATP         1 GROUP 0 A     ****
@<TRIPOS>MOLECULE
[[[3,4-dihydroxy-5-(6-imino-1~{H}-purin-9-yl)tetrahydrofuran-2-yl]methoxy-oxido-phosphoryl]oxy-oxido-phosphoryl] hydrogen phosphate
   44    46     1     0     0
SMALL
USER_CHARGES

@<TRIPOS>ATOM
      1 PG         -4.4242    5.2783    3.3242 P.3       1 ATP         1.5257
      2 O1G        -4.3846    4.2324    4.4159 O.co2     1 ATP        -0.8737
      3 O2G        -4.6223    4.8846    1.8773 O.co2     1 ATP        -0.8737
      4 O3G        -5.5491    6.3950    3.7162 O.3       1 ATP        -0.7971
      5 PB         -1.5242    5.8412    3.1954 P.3       1 ATP         1.6824
      6 O1B        -0.7051    7.1108    3.2653 O.co2     1 ATP        -0.8925
      7 O2B        -1.1766    4.6371    4.0420 O.co2     1 ATP        -0.8925
      8 O3B        -3.0941    6.2171    3.4395 O.3       1 ATP        -0.8047
      9 PA         -0.4665    4.8322    0.6228 P.3       1 ATP         1.5908
     10 O1A         0.6558    5.8467    0.5864 O.co2     1 ATP        -0.8932
     11 O2A        -1.1281    4.3644   -0.6552 O.co2     1 ATP        -0.8932
     12 O3A        -1.6297    5.3718    1.6355 O.3       1 ATP        -0.8088
     13 O5'         0.0178    3.5131    1.4595 O.3       1 ATP        -0.5646
     14 C5'        -0.8811    2.4285    1.6206 C.3       1 ATP         0.2204
     15 C4'        -0.1994    1.3333    2.4288 C.3       1 ATP         0.0965
     16 O4'        -1.1285    0.2356    2.5840 O.3       1 ATP        -0.3907
     17 C3'         1.0324    0.7610    1.7344 C.3       1 ATP         0.0763
     18 O3'         1.9175    0.2377    2.7247 O.3       1 ATP        -0.5884
     19 C2'         0.4468   -0.3802    0.9263 C.3       1 ATP         0.0784
     20 O2'         1.3993   -1.3703    0.5961 O.3       1 ATP        -0.6085
     21 C1'        -0.6159   -0.9100    1.8769 C.3       1 ATP         0.2186
     22 N9         -1.7127   -1.6108    1.2130 N.pl3     1 ATP        -0.1699
     23 C8         -2.8662   -1.0361    0.7388 C.ar      1 ATP         0.4438
     24 N7         -3.6774   -1.9166    0.1867 N.2       1 ATP        -0.6280
     25 C5         -3.0159   -3.1045    0.3122 C.ar      1 ATP         0.2109
     26 C6         -3.4377   -4.4169   -0.1199 C.ar      1 ATP         0.6180
     27 N6         -4.5720   -4.5691   -0.7080 N.2       1 ATP        -0.8319
     28 N1         -2.4600   -5.3463    0.2071 N.pl3     1 ATP        -0.8664
     29 C2         -1.2595   -5.0554    0.8515 C.ar      1 ATP         0.5952
     30 N3         -0.8555   -3.8803    1.2516 N.2       1 ATP        -0.5599
     31 C4         -1.7946   -2.9457    0.9448 C.ar      1 ATP         0.0076
     32 HOG3       -5.6954    7.1459    3.1022 H         1 ATP         0.4101
     33 H5'1       -1.7771    2.7849    2.1387 H         1 ATP         0.0364
     34 H5'2       -1.1654    2.0541    0.6320 H         1 ATP         0.0364
     35 H4'         0.0403    1.7078    3.4343 H         1 ATP         0.0945
     36 H3'         1.5907    1.4859    1.1353 H         1 ATP         0.0703
     37 HO3'        2.6839   -0.1150    2.2479 H         1 ATP         0.4099
     38 H2'        -0.0017    0.0018    0.0005 H         1 ATP         0.0676
     39 HO2'        2.0953   -0.9375    0.0709 H         1 ATP         0.4291
     40 H1'        -0.1998   -1.6319    2.6178 H         1 ATP         0.0950
     41 H8         -3.0558    0.0252    0.8256 H         1 ATP         0.1135
     42 HN62       -4.7047   -5.5592   -0.9421 H         1 ATP         0.3588
     43 H2         -0.6372   -5.9505    1.0077 H         1 ATP         0.0302
     44 H44        -2.6338   -6.3155   -0.0469 H         1 ATP         0.4215
@<TRIPOS>BOND
     1    1    2 2
     2    1    3 1
     3    1    4 1
     4    1    8 1
     5    4   32 1
     6    5    6 2
     7    5    7 1
     8    5    8 1
     9    5   12 1
    10    9   10 2
    11    9   11 1
    12    9   12 1
    13    9   13 1
    14   13   14 1
    15   14   15 1
    16   14   33 1
    17   14   34 1
    18   15   16 1
    19   15   17 1
    20   15   35 1
    21   16   21 1
    22   17   18 1
    23   17   19 1
    24   17   36 1
    25   18   37 1
    26   19   20 1
    27   19   21 1
    28   19   38 1
    29   20   39 1
    30   21   22 1
    31   21   40 1
    32   22   23 ar
    33   22   31 ar
    34   23   24 ar
    35   23   41 1
    36   24   25 ar
    37   25   26 ar
    38   25   31 ar
    39   26   27 2
    40   26   28 ar
    41   27   42 1
    42   28   29 ar
    43   28   44 1
    44   29   30 ar
    45   29   43 1
    46   30   31 ar
@<TRIPOS>SUBSTRUCTURE
     1 ATP         1 GROUP 0 A     ****
@<TRIPOS>MOLECULE
[[[3,4-dihydroxy-5-(6-imino-1~{H}-purin-9-yl)tetrahydrofuran-2-yl]methoxy-oxido-phosphoryl]oxy-oxido-phosphoryl] hydrogen phosphate
   44    46     1     0     0
SMALL
USER_CHARGES

@<TRIPOS>ATOM
      1 PG         -0.4072    6.8698   -0.7873 P.3       1 ATP         1.5257
      2 O1G         0.3279    5.9774    0.1877 O.co2     1 ATP        -0.8737
      3 O2G        -0.7712    8.2906   -0.4180 O.co2     1 ATP        -0.8737
      4 O3G         0.4224    6.8960   -2.1933 O.3       1 ATP        -0.7971
      5 PB         -3.0946    5.6738   -0.4862 P.3       1 ATP         1.6824
      6 O1B        -3.6436    6.8984    0.2111 O.co2     1 ATP        -0.8925
      7 O2B        -3.9664    4.8294   -1.3888 O.co2     1 ATP        -0.8925
      8 O3B        -1.7483    6.0981   -1.3065 O.3       1 ATP        -0.8047
      9 PA         -3.0798    3.8627    1.8536 P.3       1 ATP         1.5908
     10 O1A        -3.9736    2.7897    1.2703 O.co2     1 ATP        -0.8932
     11 O2A        -3.6162    4.8491    2.8679 O.co2     1 ATP        -0.8932
     12 O3A        -2.4007    4.7039    0.6285 O.3       1 ATP        -0.8088
     13 O5'        -1.7336    3.1724    2.4750 O.3       1 ATP        -0.5646
     14 C5'        -0.8811    2.4285    1.6206 C.3       1 ATP         0.2204
     15 C4'        -0.1994    1.3333    2.4288 C.3       1 ATP         0.0965
     16 O4'        -1.1285    0.2356    2.5840 O.3       1 ATP        -0.3907
     17 C3'         1.0324    0.7610    1.7344 C.3       1 ATP         0.0763
     18 O3'         1.9175    0.2377    2.7247 O.3       1 ATP        -0.5884
     19 C2'         0.4468   -0.3802    0.9263 C.3       1 ATP         0.0784
     20 O2'         1.3993   -1.3703    0.5961 O.3       1 ATP        -0.6085
     21 C1'        -0.6159   -0.9100    1.8769 C.3       1 ATP         0.2186
     22 N9         -1.7127   -1.6108    1.2130 N.pl3     1 ATP        -0.1699
     23 C8         -2.8662   -1.0361    0.7388 C.ar      1 ATP         0.4438
     24 N7         -3.6774   -1.9166    0.1867 N.2       1 ATP        -0.6280
     25 C5         -3.0159   -3.1045    0.3122 C.ar      1 ATP         0.2109
     26 C6         -3.4377   -4.4169   -0.1199 C.ar      1 ATP         0.6180
     27 N6         -4.5720   -4.5691   -0.7080 N.2       1 ATP        -0.8319
     28 N1         -2.4600   -5.3463    0.2071 N.pl3     1 ATP        -0.8664
     29 C2         -1.2595   -5.0554    0.8515 C.ar      1 ATP         0.5952
     30 N3         -0.8555   -3.8803    1.2516 N.2       1 ATP        -0.5599
     31 C4         -1.7946   -2.9457    0.9448 C.ar      1 ATP         0.0076
     32 HOG3        0.0706    7.4357   -2.9331 H         1 ATP         0.4101
     33 H5'1       -1.4800    1.9927    0.8146 H         1 ATP         0.0364
     34 H5'2       -0.1367    3.1040    1.1872 H         1 ATP         0.0364
     35 H4'         0.0403    1.7078    3.4343 H         1 ATP         0.0945
     36 H3'         1.5907    1.4859    1.1353 H         1 ATP         0.0703
     37 HO3'        2.6839   -0.1150    2.2479 H         1 ATP         0.4099
     38 H2'        -0.0017    0.0018    0.0005 H         1 ATP         0.0676
     39 HO2'        2.0953   -0.9375    0.0709 H         1 ATP         0.4291
     40 H1'        -0.1998   -1.6319    2.6178 H         1 ATP         0.0950
     41 H8         -3.0558    0.0252    0.8256 H         1 ATP         0.1135
     42 HN62       -4.7047   -5.5592   -0.9421 H         1 ATP         0.3588
     43 H2         -0.6372   -5.9505    1.0077 H         1 ATP         0.0302
     44 H44        -2.6338   -6.3155   -0.0469 H         1 ATP         0.4215
@<TRIPOS>BOND
     1    1    2 2
     2    1    3 1
     3    1    4 1
     4    1    8 1
     5    4   32 1
     6    5    6 2
     7    5    7 1
     8    5    8 1
     9    5   12 1
    10    9   10 2
    11    9   11 1
    12    9   12 1
    13    9   13 1
    14   13   14 1
    15   14   15 1
    16   14   33 1
    17   14   34 1
    18   15   16 1
    19   15   17 1
    20   15   35 1
    21   16   21 1
    22   17   18 1
    23   17   19 1
    24   17   36 1
    25   18   37 1
    26   19   20 1
    27   19   21 1
    28   19   38 1
    29   20   39 1
    30   21   22 1
    31   21   40 1
    32   22   23 ar
    33   22   31 ar
    34   23   24 ar
    35   23   41 1
    36   24   25 ar
    37   25   26 ar
    38   25   31 ar
    39   26   27 2
    40   26   28 ar
    41   27   42 1
    42   28   29 ar
    43   28   44 1
    44   29   30 ar
    45   29   43 1
    46   30   31 ar
@<TRIPOS>SUBSTRUCTURE
     1 ATP         1 GROUP 0 A     ****
@<TRIPOS>MOLECULE
[[[3,4-dihydroxy-5-(6-imino-1~{H}-purin-9-yl)tetrahydrofuran-2-yl]methoxy-oxido-phosphoryl]oxy-oxido-phosphoryl] hydrogen phosphate
   44    46     1     0     0
SMALL
USER_CHARGES

@<TRIPOS>ATOM
      1 PG          1.9779    1.5060   -4.2998 P.3       1 ATP         1.5257
      2 O1G         3.1998    2.2761   -4.7484 O.co2     1 ATP        -0.8737
      3 O2G         0.7988    1.3104   -5.2267 O.co2     1 ATP        -0.8737
      4 O3G         2.4576    0.0433   -3.7555 O.3       1 ATP        -0.7971
      5 PB          0.7922    3.5943   -2.5744 P.3       1 ATP         1.6824
      6 O1B         1.8526    4.6525   -2.7822 O.co2     1 ATP        -0.8925
      7 O2B        -0.5510    3.6853   -3.2635 O.co2     1 ATP        -0.8925
      8 O3B         1.4442    2.1310   -2.8897 O.3       1 ATP        -0.8047
      9 PA         -0.0889    4.4444    0.1193 P.3       1 ATP         1.5908
     10 O1A        -1.5455    4.6750   -0.2201 O.co2     1 ATP        -0.8932
     11 O2A         0.8625    5.6104    0.2774 O.co2     1 ATP        -0.8932
     12 O3A         0.5468    3.4071   -0.9714 O.3       1 ATP        -0.8088
     13 O5'         0.0178    3.5131    1.4595 O.3       1 ATP        -0.5646
     14 C5'        -0.8811    2.4285    1.6206 C.3       1 ATP         0.2204
     15 C4'        -0.1994    1.3333    2.4288 C.3       1 ATP         0.0965
     16 O4'        -1.1285    0.2356    2.5840 O.3       1 ATP        -0.3907
     17 C3'         1.0324    0.7610    1.7344 C.3       1 ATP         0.0763
     18 O3'         1.9175    0.2377    2.7247 O.3       1 ATP        -0.5884
     19 C2'         0.4468   -0.3802    0.9263 C.3       1 ATP         0.0784
     20 O2'         1.3993   -1.3703    0.5961 O.3       1 ATP        -0.6085
     21 C1'        -0.6159   -0.9100    1.8769 C.3       1 ATP         0.2186
     22 N9         -1.7127   -1.6108    1.2130 N.pl3     1 ATP        -0.1699
     23 C8         -1.7690   -2.9583    0.9549 C.ar      1 ATP         0.4438
     24 N7         -2.8827   -3.3076    0.3418 N.2       1 ATP        -0.6280
     25 C5         -3.5683   -2.1351    0.2017 C.ar      1 ATP         0.2109
     26 C6         -4.8617   -1.9185   -0.4044 C.ar      1 ATP         0.6180
     27 N6         -5.5166   -2.9094   -0.8993 N.2       1 ATP        -0.8319
     28 N1         -5.1837   -0.5701   -0.3344 N.pl3     1 ATP        -0.8664
     29 C2         -4.3821    0.4180    0.2330 C.ar      1 ATP         0.5952
     30 N3         -3.2117    0.2488    0.7860 N.2       1 ATP        -0.5599
     31 C4         -2.8672   -1.0657    0.7327 C.ar      1 ATP         0.0076
     32 HOG3        1.7748   -0.5793   -3.4263 H         1 ATP         0.4101
     33 H5'1       -1.7771    2.7849    2.1387 H         1 ATP         0.0364
     34 H5'2       -1.1654    2.0541    0.6320 H         1 ATP         0.0364
     35 H4'         0.0403    1.7078    3.4343 H         1 ATP         0.0945
     36 H3'         1.5907    1.4859    1.1353 H         1 ATP         0.0703
     37 HO3'        2.6839   -0.1150    2.2479 H         1 ATP         0.4099
     38 H2'        -0.0017    0.0018    0.0005 H         1 ATP         0.0676
     39 HO2'        2.0953   -0.9375    0.0709 H         1 ATP         0.4291
     40 H1'        -0.1998   -1.6319    2.6178 H         1 ATP         0.0950
     41 H8         -0.9697   -3.6300    1.2371 H         1 ATP         0.1135
     42 HN62       -6.4060   -2.5723   -1.2840 H         1 ATP         0.3588
     43 H2         -4.8409    1.4176    0.1757 H         1 ATP         0.0302
     44 H44        -6.0768   -0.2826   -0.7263 H         1 ATP         0.4215
@<TRIPOS>BOND
     1    1    2 2
     2    1    3 1
     3    1    4 1
     4    1    8 1
     5    4   32 1
     6    5    6 2
     7    5    7 1
     8    5    8 1
     9    5   12 1
    10    9   10 2
    11    9   11 1
    12    9   12 1
    13    9   13 1
    14   13   14 1
    15   14   15 1
    16   14   33 1
    17   14   34 1
    18   15   16 1
    19   15   17 1
    20   15   35 1
    21   16   21 1
    22   17   18 1
    23   17   19 1
    24   17   36 1
    25   18   37 1
    26   19   20 1
    27   19   21 1
    28   19   38 1
    29   20   39 1
    30   21   22 1
    31   21   40 1
    32   22   23 ar
    33   22   31 ar
    34   23   24 ar
    35   23   41 1
    36   24   25 ar
    37   25   26 ar
    38   25   31 ar
    39   26   27 2
    40   26   28 ar
    41   27   42 1
    42   28   29 ar
    43   28   44 1
    44   29   30 ar
    45   29   43 1
    46   30   31 ar
@<TRIPOS>SUBSTRUCTURE
     1 ATP         1 GROUP 0 A     ****
@<TRIPOS>MOLECULE
[[[3,4-dihydroxy-5-(6-imino-1~{H}-purin-9-yl)tetrahydrofuran-2-yl]methoxy-oxido-phosphoryl]oxy-oxido-phosphoryl] hydrogen phosphate
   44    46     1     0     0
SMALL
USER_CHARGES

@<TRIPOS>ATOM
      1 PG          0.3379    8.2848    3.5362 P.3       1 ATP         1.5257
      2 O1G         1.5284    7.6047    4.1747 O.co2     1 ATP        -0.8737
      3 O2G        -0.5821    9.1672    4.3502 O.co2     1 ATP        -0.8737
      4 O3G         0.8579    9.1327    2.2414 O.3       1 ATP        -0.7971
      5 PB         -1.4295    5.9213    3.3516 P.3       1 ATP         1.6824
      6 O1B        -0.4815    4.9134    3.9621 O.co2     1 ATP        -0.8925
      7 O2B        -2.5936    6.4792    4.1397 O.co2     1 ATP        -0.8925
      8 O3B        -0.5571    7.1657    2.7548 O.3       1 ATP        -0.8047
      9 PA         -2.9646    4.0418    1.6587 P.3       1 ATP         1.5908
     10 O1A        -3.0699    3.8298    0.1639 O.co2     1 ATP        -0.8932
     11 O2A        -4.2078    4.1934    2.5079 O.co2     1 ATP        -0.8932
     12 O3A        -1.9910    5.3235    1.9402 O.3       1 ATP        -0.8088
     13 O5'        -2.0401    2.8620    2.3128 O.3       1 ATP        -0.5646
     14 C5'        -0.8811    2.4285    1.6206 C.3       1 ATP         0.2204
     15 C4'        -0.1994    1.3333    2.4288 C.3       1 ATP         0.0965
     16 O4'        -1.1285    0.2356    2.5840 O.3       1 ATP        -0.3907
     17 C3'         1.0324    0.7610    1.7344 C.3       1 ATP         0.0763
     18 O3'         1.9175    0.2377    2.7247 O.3       1 ATP        -0.5884
     19 C2'         0.4468   -0.3802    0.9263 C.3       1 ATP         0.0784
     20 O2'         1.3993   -1.3703    0.5961 O.3       1 ATP        -0.6085
     21 C1'        -0.6159   -0.9100    1.8769 C.3       1 ATP         0.2186
     22 N9         -1.7127   -1.6108    1.2130 N.pl3     1 ATP        -0.1699
     23 C8         -2.5485   -1.0808    0.2609 C.ar      1 ATP         0.4438
     24 N7         -3.4476   -1.9486   -0.1593 N.2       1 ATP        -0.6280
     25 C5         -3.1762   -3.0816    0.5530 C.ar      1 ATP         0.2109
     26 C6         -3.8510   -4.3579    0.5006 C.ar      1 ATP         0.6180
     27 N6         -4.8468   -4.5293   -0.2961 N.2       1 ATP        -0.8319
     28 N1         -3.2499   -5.2342    1.3937 N.pl3     1 ATP        -0.8664
     29 C2         -2.1646   -4.9275    2.2116 C.ar      1 ATP         0.5952
     30 N3         -1.5382   -3.7840    2.2778 N.2       1 ATP        -0.5599
     31 C4         -2.1054   -2.9018    1.4120 C.ar      1 ATP         0.0076
     32 HOG3        0.1983    9.6342    1.7162 H         1 ATP         0.4101
     33 H5'1       -1.1767    2.0502    0.6368 H         1 ATP         0.0364
     34 H5'2       -0.2080    3.2814    1.4876 H         1 ATP         0.0364
     35 H4'         0.0403    1.7078    3.4343 H         1 ATP         0.0945
     36 H3'         1.5907    1.4859    1.1353 H         1 ATP         0.0703
     37 HO3'        2.6839   -0.1150    2.2479 H         1 ATP         0.4099
     38 H2'        -0.0017    0.0018    0.0005 H         1 ATP         0.0676
     39 HO2'        2.0953   -0.9375    0.0709 H         1 ATP         0.4291
     40 H1'        -0.1998   -1.6319    2.6178 H         1 ATP         0.0950
     41 H8         -2.4515   -0.0599   -0.0829 H         1 ATP         0.1135
     42 HN62       -5.1990   -5.4882   -0.2005 H         1 ATP         0.3588
     43 H2         -1.8555   -5.7783    2.8388 H         1 ATP         0.0302
     44 H44        -3.6312   -6.1750    1.4526 H         1 ATP         0.4215
@<TRIPOS>BOND
     1    1    2 2
     2    1    3 1
     3    1    4 1
     4    1    8 1
     5    4   32 1
     6    5    6 2
     7    5    7 1
     8    5    8 1
     9    5   12 1
    10    9   10 2
    11    9   11 1
    12    9   12 1
    13    9   13 1
    14   13   14 1
    15   14   15 1
    16   14   33 1
    17   14   34 1
    18   15   16 1
    19   15   17 1
    20   15   35 1
    21   16   21 1
    22   17   18 1
    23   17   19 1
    24   17   36 1
    25   18   37 1
    26   19   20 1
    27   19   21 1
    28   19   38 1
    29   20   39 1
    30   21   22 1
    31   21   40 1
    32   22   23 ar
    33   22   31 ar
    34   23   24 ar
    35   23   41 1
    36   24   25 ar
    37   25   26 ar
    38   25   31 ar
    39   26   27 2
    40   26   28 ar
    41   27   42 1
    42   28   29 ar
    43   28   44 1
    44   29   30 ar
    45   29   43 1
    46   30   31 ar
@<TRIPOS>SUBSTRUCTURE
     1 ATP         1 GROUP 0 A     ****
@<TRIPOS>MOLECULE
[[[3,4-dihydroxy-5-(6-imino-1~{H}-purin-9-yl)tetrahydrofuran-2-yl]methoxy-oxido-phosphoryl]oxy-oxido-phosphoryl] hydrogen phosphate
   44    46     1     0     0
SMALL
USER_CHARGES

@<TRIPOS>ATOM
      1 PG          0.0102    8.3342    0.8291 P.3       1 ATP         1.5257
      2 O1G        -0.4782    9.4784    1.6893 O.co2     1 ATP        -0.8737
      3 O2G        -0.8512    7.7732   -0.2803 O.co2     1 ATP        -0.8737
      4 O3G         1.4628    8.7392    0.2032 O.3       1 ATP        -0.7971
      5 PB         -0.3859    6.1552    2.7883 P.3       1 ATP         1.6824
      6 O1B         0.5120    5.0654    3.3303 O.co2     1 ATP        -0.8925
      7 O2B        -1.1982    7.0334    3.7137 O.co2     1 ATP        -0.8925
      8 O3B         0.4908    7.1104    1.7960 O.3       1 ATP        -0.8047
      9 PA         -2.5926    4.4187    1.8556 P.3       1 ATP         1.5908
     10 O1A        -3.1164    4.0395    0.4873 O.co2     1 ATP        -0.8932
     11 O2A        -3.5302    4.9262    2.9294 O.co2     1 ATP        -0.8932
     12 O3A        -1.3848    5.5039    1.6734 O.3       1 ATP        -0.8088
     13 O5'        -1.7336    3.1724    2.4750 O.3       1 ATP        -0.5646
     14 C5'        -0.8811    2.4285    1.6206 C.3       1 ATP         0.2204
     15 C4'        -0.1994    1.3333    2.4288 C.3       1 ATP         0.0965
     16 O4'        -1.1285    0.2356    2.5840 O.3       1 ATP        -0.3907
     17 C3'         1.0324    0.7610    1.7344 C.3       1 ATP         0.0763
     18 O3'         1.9175    0.2377    2.7247 O.3       1 ATP        -0.5884
     19 C2'         0.4468   -0.3802    0.9263 C.3       1 ATP         0.0784
     20 O2'         1.3993   -1.3703    0.5961 O.3       1 ATP        -0.6085
     21 C1'        -0.6159   -0.9100    1.8769 C.3       1 ATP         0.2186
     22 N9         -1.7127   -1.6108    1.2130 N.pl3     1 ATP        -0.1699
     23 C8         -2.8662   -1.0361    0.7388 C.ar      1 ATP         0.4438
     24 N7         -3.6774   -1.9166    0.1867 N.2       1 ATP        -0.6280
     25 C5         -3.0159   -3.1045    0.3122 C.ar      1 ATP         0.2109
     26 C6         -3.4377   -4.4169   -0.1199 C.ar      1 ATP         0.6180
     27 N6         -4.5720   -4.5691   -0.7080 N.2       1 ATP        -0.8319
     28 N1         -2.4600   -5.3463    0.2071 N.pl3     1 ATP        -0.8664
     29 C2         -1.2595   -5.0554    0.8515 C.ar      1 ATP         0.5952
     30 N3         -0.8555   -3.8803    1.2516 N.2       1 ATP        -0.5599
     31 C4         -1.7946   -2.9457    0.9448 C.ar      1 ATP         0.0076
     32 HOG3        1.9148    8.0950   -0.3824 H         1 ATP         0.4101
     33 H5'1       -1.4800    1.9927    0.8146 H         1 ATP         0.0364
     34 H5'2       -0.1367    3.1040    1.1872 H         1 ATP         0.0364
     35 H4'         0.0403    1.7078    3.4343 H         1 ATP         0.0945
     36 H3'         1.5907    1.4859    1.1353 H         1 ATP         0.0703
     37 HO3'        2.1521    0.9800    3.3017 H         1 ATP         0.4099
     38 H2'        -0.0017    0.0018    0.0005 H         1 ATP         0.0676
     39 HO2'        2.0953   -0.9375    0.0709 H         1 ATP         0.4291
     40 H1'        -0.1998   -1.6319    2.6178 H         1 ATP         0.0950
     41 H8         -3.0558    0.0252    0.8256 H         1 ATP         0.1135
     42 HN62       -4.7047   -5.5592   -0.9421 H         1 ATP         0.3588
     43 H2         -0.6372   -5.9505    1.0077 H         1 ATP         0.0302
     44 H44        -2.6338   -6.3155   -0.0469 H         1 ATP         0.4215
@<TRIPOS>BOND
     1    1    2 2
     2    1    3 1
     3    1    4 1
     4    1    8 1
     5    4   32 1
     6    5    6 2
     7    5    7 1
     8    5    8 1
     9    5   12 1
    10    9   10 2
    11    9   11 1
    12    9   12 1
    13    9   13 1
    14   13   14 1
    15   14   15 1
    16   14   33 1
    17   14   34 1
    18   15   16 1
    19   15   17 1
    20   15   35 1
    21   16   21 1
    22   17   18 1
    23   17   19 1
    24   17   36 1
    25   18   37 1
    26   19   20 1
    27   19   21 1
    28   19   38 1
    29   20   39 1
    30   21   22 1
    31   21   40 1
    32   22   23 ar
    33   22   31 ar
    34   23   24 ar
    35   23   41 1
    36   24   25 ar
    37   25   26 ar
    38   25   31 ar
    39   26   27 2
    40   26   28 ar
    41   27   42 1
    42   28   29 ar
    43   28   44 1
    44   29   30 ar
    45   29   43 1
    46   30   31 ar
@<TRIPOS>SUBSTRUCTURE
     1 ATP         1 GROUP 0 A     ****
@<TRIPOS>MOLECULE
[[[3,4-dihydroxy-5-(6-imino-1~{H}-purin-9-yl)tetrahydrofuran-2-yl]methoxy-oxido-phosphoryl]oxy-oxido-phosphoryl] hydrogen phosphate
   44    46     1     0     0
SMALL
USER_CHARGES

@<TRIPOS>ATOM
      1 PG          1.6237    5.1987   -4.8742 P.3       1 ATP         1.5257
      2 O1G         2.0617    4.3786   -6.0670 O.co2     1 ATP        -0.8737
      3 O2G         1.5782    6.7090   -4.9438 O.co2     1 ATP        -0.8737
      4 O3G         0.1640    4.6583   -4.3810 O.3       1 ATP        -0.7971
      5 PB          4.0976    4.9431   -3.2748 P.3       1 ATP         1.6824
      6 O1B         4.8768    4.0845   -4.2459 O.co2     1 ATP        -0.8925
      7 O2B         4.3921    6.4189   -3.1234 O.co2     1 ATP        -0.8925
      8 O3B         2.5034    4.7554   -3.5729 O.3       1 ATP        -0.8047
      9 PA          5.4151    4.0218   -0.7908 P.3       1 ATP         1.5908
     10 O1A         5.9087    5.3740   -0.3236 O.co2     1 ATP        -0.8932
     11 O2A         6.3635    3.0302   -1.4286 O.co2     1 ATP        -0.8932
     12 O3A         4.1498    4.2446   -1.8003 O.3       1 ATP        -0.8088
     13 O5'         4.6405    3.2699    0.4378 O.3       1 ATP        -0.5646
     14 C5'         4.0922    1.9801    0.2227 C.3       1 ATP         0.2204
     15 C4'         2.5944    2.0310    0.4653 C.3       1 ATP         0.0965
     16 O4'         1.9327    2.5740   -0.6889 O.3       1 ATP        -0.3907
     17 C3'         1.9685    0.6634    0.6767 C.3       1 ATP         0.0763
     18 O3'         2.1425    0.1975    1.9977 O.3       1 ATP        -0.5884
     19 C2'         0.5176    0.9128    0.3099 C.3       1 ATP         0.0784
     20 O2'        -0.2103    1.4454    1.4152 O.3       1 ATP        -0.6085
     21 C1'         0.6219    1.9765   -0.7844 C.3       1 ATP         0.2186
     22 N9          0.4237    1.4496   -2.1357 N.pl3     1 ATP        -0.1699
     23 C8          1.4069    0.9710   -2.9662 C.ar      1 ATP         0.4438
     24 N7          0.9316    0.5623   -4.1260 N.2       1 ATP        -0.6280
     25 C5         -0.4120    0.7884   -4.0344 C.ar      1 ATP         0.2109
     26 C6         -1.4353    0.5283   -5.0204 C.ar      1 ATP         0.6180
     27 N6         -1.1199    0.0176   -6.1586 N.2       1 ATP        -0.8319
     28 N1         -2.6704    0.9095   -4.5147 N.pl3     1 ATP        -0.8664
     29 C2         -2.8863    1.4571   -3.2520 C.ar      1 ATP         0.5952
     30 N3         -1.9805    1.7017   -2.3442 N.2       1 ATP        -0.5599
     31 C4         -0.7561    1.3381   -2.8112 C.ar      1 ATP         0.0076
     32 HOG3       -0.2585    5.0928   -3.6096 H         1 ATP         0.4101
     33 H5'1        4.3028    1.6728   -0.8066 H         1 ATP         0.0364
     34 H5'2        4.5677    1.2738    0.9106 H         1 ATP         0.0364
     35 H4'         2.3752    2.7029    1.3156 H         1 ATP         0.0945
     36 H3'         2.4336   -0.1217   -0.0015 H         1 ATP         0.0703
     37 HO3'        1.7160   -0.6716    2.0397 H         1 ATP         0.4099
     38 H2'         0.0316    0.0155   -0.0339 H         1 ATP         0.0676
     39 HO2'       -0.1608    0.7921    2.1351 H         1 ATP         0.4291
     40 H1'        -0.1474    2.7798   -0.6651 H         1 ATP         0.0950
     41 H8          2.4466    0.9468   -2.6694 H         1 ATP         0.1135
     42 HN62       -1.9661   -0.0965   -6.7275 H         1 ATP         0.3588
     43 H2         -3.9481    1.6825   -3.0660 H         1 ATP         0.0302
     44 H44        -3.4814    0.7753   -5.1133 H         1 ATP         0.4215
@<TRIPOS>BOND
     1    1    2 2
     2    1    3 1
     3    1    4 1
     4    1    8 1
     5    4   32 1
     6    5    6 2
     7    5    7 1
     8    5    8 1
     9    5   12 1
    10    9   10 2
    11    9   11 1
    12    9   12 1
    13    9   13 1
    14   13   14 1
    15   14   15 1
    16   14   33 1
    17   14   34 1
    18   15   16 1
    19   15   17 1
    20   15   35 1
    21   16   21 1
    22   17   18 1
    23   17   19 1
    24   17   36 1
    25   18   37 1
    26   19   20 1
    27   19   21 1
    28   19   38 1
    29   20   39 1
    30   21   22 1
    31   21   40 1
    32   22   23 ar
    33   22   31 ar
    34   23   24 ar
    35   23   41 1
    36   24   25 ar
    37   25   26 ar
    38   25   31 ar
    39   26   27 2
    40   26   28 ar
    41   27   42 1
    42   28   29 ar
    43   28   44 1
    44   29   30 ar
    45   29   43 1
    46   30   31 ar
@<TRIPOS>SUBSTRUCTURE
     1 ATP         1 GROUP 0 A     ****
@<TRIPOS>MOLECULE
[[[3,4-dihydroxy-5-(6-imino-1~{H}-purin-9-yl)tetrahydrofuran-2-yl]methoxy-oxido-phosphoryl]oxy-oxido-phosphoryl] hydrogen phosphate
   44    46     1     0     0
SMALL
USER_CHARGES

@<TRIPOS>ATOM
      1 PG         -3.3116    1.5846   -2.4646 P.3       1 ATP         1.5257
      2 O1G        -2.3946    1.0167   -1.4045 O.co2     1 ATP        -0.8737
      3 O2G        -2.7670    2.4421   -3.5852 O.co2     1 ATP        -0.8737
      4 O3G        -4.1690    0.3590   -3.1195 O.3       1 ATP        -0.7971
      5 PB         -4.5113    3.7495   -0.8468 P.3       1 ATP         1.6824
      6 O1B        -3.8138    4.8314   -1.6409 O.co2     1 ATP        -0.8925
      7 O2B        -5.8878    3.9720   -0.2608 O.co2     1 ATP        -0.8925
      8 O3B        -4.5362    2.3808   -1.7366 O.3       1 ATP        -0.8047
      9 PA         -2.9646    4.0418    1.6587 P.3       1 ATP         1.5908
     10 O1A        -4.1353    4.3308    2.5732 O.co2     1 ATP        -0.8932
     11 O2A        -2.0512    5.1559    1.1958 O.co2     1 ATP        -0.8932
     12 O3A        -3.5115    3.2453    0.3410 O.3       1 ATP        -0.8088
     13 O5'        -2.0401    2.8620    2.3128 O.3       1 ATP        -0.5646
     14 C5'        -0.8811    2.4285    1.6206 C.3       1 ATP         0.2204
     15 C4'        -0.1994    1.3333    2.4288 C.3       1 ATP         0.0965
     16 O4'        -1.1285    0.2356    2.5840 O.3       1 ATP        -0.3907
     17 C3'         1.0324    0.7610    1.7344 C.3       1 ATP         0.0763
     18 O3'         1.9175    0.2377    2.7247 O.3       1 ATP        -0.5884
     19 C2'         0.4468   -0.3802    0.9263 C.3       1 ATP         0.0784
     20 O2'         1.3993   -1.3703    0.5961 O.3       1 ATP        -0.6085
     21 C1'        -0.6159   -0.9100    1.8769 C.3       1 ATP         0.2186
     22 N9         -1.7127   -1.6108    1.2130 N.pl3     1 ATP        -0.1699
     23 C8         -3.0370   -1.2489    1.2455 C.ar      1 ATP         0.4438
     24 N7         -3.8008   -2.0709    0.5534 N.2       1 ATP        -0.6280
     25 C5         -2.9295   -2.9976    0.0567 C.ar      1 ATP         0.2109
     26 C6         -3.2152   -4.1411   -0.7786 C.ar      1 ATP         0.6180
     27 N6         -4.4238   -4.3865   -1.1456 N.2       1 ATP        -0.8319
     28 N1         -2.0349   -4.8186   -1.0521 N.pl3     1 ATP        -0.8664
     29 C2         -0.7728   -4.4501   -0.5916 C.ar      1 ATP         0.5952
     30 N3         -0.4885   -3.4234    0.1630 N.2       1 ATP        -0.5599
     31 C4         -1.6274   -2.7377    0.4492 C.ar      1 ATP         0.0076
     32 HOG3       -4.8141    0.5672   -3.8286 H         1 ATP         0.4101
     33 H5'1       -1.1767    2.0502    0.6368 H         1 ATP         0.0364
     34 H5'2       -0.2080    3.2814    1.4876 H         1 ATP         0.0364
     35 H4'         0.0403    1.7078    3.4343 H         1 ATP         0.0945
     36 H3'         1.5907    1.4859    1.1353 H         1 ATP         0.0703
     37 HO3'        2.6839   -0.1150    2.2479 H         1 ATP         0.4099
     38 H2'        -0.0017    0.0018    0.0005 H         1 ATP         0.0676
     39 HO2'        2.0953   -0.9375    0.0709 H         1 ATP         0.4291
     40 H1'        -0.1998   -1.6319    2.6178 H         1 ATP         0.0950
     41 H8         -3.3806   -0.3795    1.7893 H         1 ATP         0.1135
     42 HN62       -4.4384   -5.2300   -1.7295 H         1 ATP         0.3588
     43 H2          0.0180   -5.1355   -0.9348 H         1 ATP         0.0302
     44 H44        -2.0977   -5.6477   -1.6374 H         1 ATP         0.4215
@<TRIPOS>BOND
     1    1    2 2
     2    1    3 1
     3    1    4 1
     4    1    8 1
     5    4   32 1
     6    5    6 2
     7    5    7 1
     8    5    8 1
     9    5   12 1
    10    9   10 2
    11    9   11 1
    12    9   12 1
    13    9   13 1
    14   13   14 1
    15   14   15 1
    16   14   33 1
    17   14   34 1
    18   15   16 1
    19   15   17 1
    20   15   35 1
    21   16   21 1
    22   17   18 1
    23   17   19 1
    24   17   36 1
    25   18   37 1
    26   19   20 1
    27   19   21 1
    28   19   38 1
    29   20   39 1
    30   21   22 1
    31   21   40 1
    32   22   23 ar
    33   22   31 ar
    34   23   24 ar
    35   23   41 1
    36   24   25 ar
    37   25   26 ar
    38   25   31 ar
    39   26   27 2
    40   26   28 ar
    41   27   42 1
    42   28   29 ar
    43   28   44 1
    44   29   30 ar
    45   29   43 1
    46   30   31 ar
@<TRIPOS>SUBSTRUCTURE
     1 ATP         1 GROUP 0 A     ****
@<TRIPOS>MOLECULE
[[[3,4-dihydroxy-5-(6-imino-1~{H}-purin-9-yl)tetrahydrofuran-2-yl]methoxy-oxido-phosphoryl]oxy-oxido-phosphoryl] hydrogen phosphate
   44    46     1     0     0
SMALL
USER_CHARGES

@<TRIPOS>ATOM
      1 PG         -6.7223    0.7685   -0.2212 P.3       1 ATP         1.5257
      2 O1G        -6.9241   -0.7263   -0.1107 O.co2     1 ATP        -0.8737
      3 O2G        -6.5978    1.4383   -1.5716 O.co2     1 ATP        -0.8737
      4 O3G        -7.9054    1.5152    0.6207 O.3       1 ATP        -0.7971
      5 PB         -5.1531    0.9035    2.2813 P.3       1 ATP         1.6824
      6 O1B        -6.1697    1.6501    3.1159 O.co2     1 ATP        -0.8925
      7 O2B        -4.9320   -0.5821    2.4600 O.co2     1 ATP        -0.8925
      8 O3B        -5.4497    1.2025    0.7039 O.3       1 ATP        -0.8047
      9 PA         -3.3347    3.2338    2.1468 P.3       1 ATP         1.5908
     10 O1A        -4.0314    4.0802    3.1901 O.co2     1 ATP        -0.8932
     11 O2A        -3.5037    3.5289    0.6724 O.co2     1 ATP        -0.8932
     12 O3A        -3.7146    1.6655    2.4035 O.3       1 ATP        -0.8088
     13 O5'        -1.7336    3.1724    2.4750 O.3       1 ATP        -0.5646
     14 C5'        -0.8811    2.4285    1.6206 C.3       1 ATP         0.2204
     15 C4'        -0.1994    1.3333    2.4288 C.3       1 ATP         0.0965
     16 O4'        -1.1285    0.2356    2.5840 O.3       1 ATP        -0.3907
     17 C3'         1.0324    0.7610    1.7344 C.3       1 ATP         0.0763
     18 O3'         1.9175    0.2377    2.7247 O.3       1 ATP        -0.5884
     19 C2'         0.4468   -0.3802    0.9263 C.3       1 ATP         0.0784
     20 O2'         1.3993   -1.3703    0.5961 O.3       1 ATP        -0.6085
     21 C1'        -0.6159   -0.9100    1.8769 C.3       1 ATP         0.2186
     22 N9         -1.7127   -1.6108    1.2130 N.pl3     1 ATP        -0.1699
     23 C8         -2.5485   -1.0808    0.2609 C.ar      1 ATP         0.4438
     24 N7         -3.4476   -1.9486   -0.1593 N.2       1 ATP        -0.6280
     25 C5         -3.1762   -3.0816    0.5530 C.ar      1 ATP         0.2109
     26 C6         -3.8510   -4.3579    0.5006 C.ar      1 ATP         0.6180
     27 N6         -4.8468   -4.5293   -0.2961 N.2       1 ATP        -0.8319
     28 N1         -3.2499   -5.2342    1.3937 N.pl3     1 ATP        -0.8664
     29 C2         -2.1646   -4.9275    2.2116 C.ar      1 ATP         0.5952
     30 N3         -1.5382   -3.7840    2.2778 N.2       1 ATP        -0.5599
     31 C4         -2.1054   -2.9018    1.4120 C.ar      1 ATP         0.0076
     32 HOG3       -7.9812    1.3326    1.5815 H         1 ATP         0.4101
     33 H5'1       -1.4800    1.9927    0.8146 H         1 ATP         0.0364
     34 H5'2       -0.1367    3.1040    1.1872 H         1 ATP         0.0364
     35 H4'         0.0403    1.7078    3.4343 H         1 ATP         0.0945
     36 H3'         1.5907    1.4859    1.1353 H         1 ATP         0.0703
     37 HO3'        2.1521    0.9800    3.3017 H         1 ATP         0.4099
     38 H2'        -0.0017    0.0018    0.0005 H         1 ATP         0.0676
     39 HO2'        0.9369   -2.0558    0.0825 H         1 ATP         0.4291
     40 H1'        -0.1998   -1.6319    2.6178 H         1 ATP         0.0950
     41 H8         -2.4515   -0.0599   -0.0829 H         1 ATP         0.1135
     42 HN62       -5.1990   -5.4882   -0.2005 H         1 ATP         0.3588
     43 H2         -1.8555   -5.7783    2.8388 H         1 ATP         0.0302
     44 H44        -3.6312   -6.1750    1.4526 H         1 ATP         0.4215
@<TRIPOS>BOND
     1    1    2 2
     2    1    3 1
     3    1    4 1
     4    1    8 1
     5    4   32 1
     6    5    6 2
     7    5    7 1
     8    5    8 1
     9    5   12 1
    10    9   10 2
    11    9   11 1
    12    9   12 1
    13    9   13 1
    14   13   14 1
    15   14   15 1
    16   14   33 1
    17   14   34 1
    18   15   16 1
    19   15   17 1
    20   15   35 1
    21   16   21 1
    22   17   18 1
    23   17   19 1
    24   17   36 1
    25   18   37 1
    26   19   20 1
    27   19   21 1
    28   19   38 1
    29   20   39 1
    30   21   22 1
    31   21   40 1
    32   22   23 ar
    33   22   31 ar
    34   23   24 ar
    35   23   41 1
    36   24   25 ar
    37   25   26 ar
    38   25   31 ar
    39   26   27 2
    40   26   28 ar
    41   27   42 1
    42   28   29 ar
    43   28   44 1
    44   29   30 ar
    45   29   43 1
    46   30   31 ar
@<TRIPOS>SUBSTRUCTURE
     1 ATP         1 GROUP 0 A     ****
@<TRIPOS>MOLECULE
[[[3,4-dihydroxy-5-(6-imino-1~{H}-purin-9-yl)tetrahydrofuran-2-yl]methoxy-oxido-phosphoryl]oxy-oxido-phosphoryl] hydrogen phosphate
   44    46     1     0     0
SMALL
USER_CHARGES

@<TRIPOS>ATOM
      1 PG         -4.2915    6.0078   -2.3575 P.3       1 ATP         1.5257
      2 O1G        -3.0474    6.5761   -3.0028 O.co2     1 ATP        -0.8737
      3 O2G        -5.4321    6.9095   -1.9407 O.co2     1 ATP        -0.8737
      4 O3G        -4.8858    4.8326   -3.3228 O.3       1 ATP        -0.7971
      5 PB         -4.7646    4.1198   -0.1315 P.3       1 ATP         1.6824
      6 O1B        -5.7152    4.9841    0.6664 O.co2     1 ATP        -0.8925
      7 O2B        -5.2685    2.9575   -0.9577 O.co2     1 ATP        -0.8925
      8 O3B        -3.8551    5.0841   -1.0847 O.3       1 ATP        -0.8047
      9 PA         -2.5926    4.4187    1.8556 P.3       1 ATP         1.5908
     10 O1A        -3.4218    5.0536    2.9508 O.co2     1 ATP        -0.8932
     11 O2A        -1.6631    5.2564    1.0048 O.co2     1 ATP        -0.8932
     12 O3A        -3.5855    3.5838    0.8621 O.3       1 ATP        -0.8088
     13 O5'        -1.7336    3.1724    2.4750 O.3       1 ATP        -0.5646
     14 C5'        -0.8811    2.4285    1.6206 C.3       1 ATP         0.2204
     15 C4'        -0.1994    1.3333    2.4288 C.3       1 ATP         0.0965
     16 O4'        -1.1285    0.2356    2.5840 O.3       1 ATP        -0.3907
     17 C3'         1.0324    0.7610    1.7344 C.3       1 ATP         0.0763
     18 O3'         1.9175    0.2377    2.7247 O.3       1 ATP        -0.5884
     19 C2'         0.4468   -0.3802    0.9263 C.3       1 ATP         0.0784
     20 O2'         1.3993   -1.3703    0.5961 O.3       1 ATP        -0.6085
     21 C1'        -0.6159   -0.9100    1.8769 C.3       1 ATP         0.2186
     22 N9         -1.7127   -1.6108    1.2130 N.pl3     1 ATP        -0.1699
     23 C8         -2.8662   -1.0361    0.7388 C.ar      1 ATP         0.4438
     24 N7         -3.6774   -1.9166    0.1867 N.2       1 ATP        -0.6280
     25 C5         -3.0159   -3.1045    0.3122 C.ar      1 ATP         0.2109
     26 C6         -3.4377   -4.4169   -0.1199 C.ar      1 ATP         0.6180
     27 N6         -4.5720   -4.5691   -0.7080 N.2       1 ATP        -0.8319
     28 N1         -2.4600   -5.3463    0.2071 N.pl3     1 ATP        -0.8664
     29 C2         -1.2595   -5.0554    0.8515 C.ar      1 ATP         0.5952
     30 N3         -0.8555   -3.8803    1.2516 N.2       1 ATP        -0.5599
     31 C4         -1.7946   -2.9457    0.9448 C.ar      1 ATP         0.0076
     32 HOG3       -5.6991    4.3627   -3.0398 H         1 ATP         0.4101
     33 H5'1       -1.4800    1.9927    0.8146 H         1 ATP         0.0364
     34 H5'2       -0.1367    3.1040    1.1872 H         1 ATP         0.0364
     35 H4'         0.0403    1.7078    3.4343 H         1 ATP         0.0945
     36 H3'         1.5907    1.4859    1.1353 H         1 ATP         0.0703
     37 HO3'        2.6839   -0.1150    2.2479 H         1 ATP         0.4099
     38 H2'        -0.0017    0.0018    0.0005 H         1 ATP         0.0676
     39 HO2'        2.0953   -0.9375    0.0709 H         1 ATP         0.4291
     40 H1'        -0.1998   -1.6319    2.6178 H         1 ATP         0.0950
     41 H8         -3.0558    0.0252    0.8256 H         1 ATP         0.1135
     42 HN62       -4.7047   -5.5592   -0.9421 H         1 ATP         0.3588
     43 H2         -0.6372   -5.9505    1.0077 H         1 ATP         0.0302
     44 H44        -2.6338   -6.3155   -0.0469 H         1 ATP         0.4215
@<TRIPOS>BOND
     1    1    2 2
     2    1    3 1
     3    1    4 1
     4    1    8 1
     5    4   32 1
     6    5    6 2
     7    5    7 1
     8    5    8 1
     9    5   12 1
    10    9   10 2
    11    9   11 1
    12    9   12 1
    13    9   13 1
    14   13   14 1
    15   14   15 1
    16   14   33 1
    17   14   34 1
    18   15   16 1
    19   15   17 1
    20   15   35 1
    21   16   21 1
    22   17   18 1
    23   17   19 1
    24   17   36 1
    25   18   37 1
    26   19   20 1
    27   19   21 1
    28   19   38 1
    29   20   39 1
    30   21   22 1
    31   21   40 1
    32   22   23 ar
    33   22   31 ar
    34   23   24 ar
    35   23   41 1
    36   24   25 ar
    37   25   26 ar
    38   25   31 ar
    39   26   27 2
    40   26   28 ar
    41   27   42 1
    42   28   29 ar
    43   28   44 1
    44   29   30 ar
    45   29   43 1
    46   30   31 ar
@<TRIPOS>SUBSTRUCTURE
     1 ATP         1 GROUP 0 A     ****
@<TRIPOS>MOLECULE
[[[3,4-dihydroxy-5-(6-imino-1~{H}-purin-9-yl)tetrahydrofuran-2-yl]methoxy-oxido-phosphoryl]oxy-oxido-phosphoryl] hydrogen phosphate
   44    46     1     0     0
SMALL
USER_CHARGES

@<TRIPOS>ATOM
      1 PG          0.3643    5.8247    5.7060 P.3       1 ATP         1.5257
      2 O1G         0.2754    4.3377    5.4450 O.co2     1 ATP        -0.8737
      3 O2G        -0.4749    6.4765    6.7825 O.co2     1 ATP        -0.8737
      4 O3G         1.9292    6.2137    5.9622 O.3       1 ATP        -0.7971
      5 PB         -1.1961    6.7418    3.3678 P.3       1 ATP         1.6824
      6 O1B        -2.3500    7.2091    4.2267 O.co2     1 ATP        -0.8925
      7 O2B        -0.8308    7.4606    2.0882 O.co2     1 ATP        -0.8925
      8 O3B         0.1379    6.6250    4.3018 O.3       1 ATP        -0.8047
      9 PA         -2.5400    4.4095    2.1393 P.3       1 ATP         1.5908
     10 O1A        -2.3768    4.8335    0.6957 O.co2     1 ATP        -0.8932
     11 O2A        -3.8713    4.5576    2.8432 O.co2     1 ATP        -0.8932
     12 O3A        -1.3978    5.1558    3.0383 O.3       1 ATP        -0.8088
     13 O5'        -2.0401    2.8620    2.3128 O.3       1 ATP        -0.5646
     14 C5'        -0.8811    2.4285    1.6206 C.3       1 ATP         0.2204
     15 C4'        -0.1994    1.3333    2.4288 C.3       1 ATP         0.0965
     16 O4'        -1.1285    0.2356    2.5840 O.3       1 ATP        -0.3907
     17 C3'         1.0324    0.7610    1.7344 C.3       1 ATP         0.0763
     18 O3'         1.9175    0.2377    2.7247 O.3       1 ATP        -0.5884
     19 C2'         0.4468   -0.3802    0.9263 C.3       1 ATP         0.0784
     20 O2'         1.3993   -1.3703    0.5961 O.3       1 ATP        -0.6085
     21 C1'        -0.6159   -0.9100    1.8769 C.3       1 ATP         0.2186
     22 N9         -1.7127   -1.6108    1.2130 N.pl3     1 ATP        -0.1699
     23 C8         -1.7690   -2.9583    0.9549 C.ar      1 ATP         0.4438
     24 N7         -2.8827   -3.3076    0.3418 N.2       1 ATP        -0.6280
     25 C5         -3.5683   -2.1351    0.2017 C.ar      1 ATP         0.2109
     26 C6         -4.8617   -1.9185   -0.4044 C.ar      1 ATP         0.6180
     27 N6         -5.5166   -2.9094   -0.8993 N.2       1 ATP        -0.8319
     28 N1         -5.1837   -0.5701   -0.3344 N.pl3     1 ATP        -0.8664
     29 C2         -4.3821    0.4180    0.2330 C.ar      1 ATP         0.5952
     30 N3         -3.2117    0.2488    0.7860 N.2       1 ATP        -0.5599
     31 C4         -2.8672   -1.0657    0.7327 C.ar      1 ATP         0.0076
     32 HOG3        2.1532    7.1507    6.1471 H         1 ATP         0.4101
     33 H5'1       -1.1767    2.0502    0.6368 H         1 ATP         0.0364
     34 H5'2       -0.2080    3.2814    1.4876 H         1 ATP         0.0364
     35 H4'         0.0403    1.7078    3.4343 H         1 ATP         0.0945
     36 H3'         1.5907    1.4859    1.1353 H         1 ATP         0.0703
     37 HO3'        2.6839   -0.1150    2.2479 H         1 ATP         0.4099
     38 H2'        -0.0017    0.0018    0.0005 H         1 ATP         0.0676
     39 HO2'        2.0953   -0.9375    0.0709 H         1 ATP         0.4291
     40 H1'        -0.1998   -1.6319    2.6178 H         1 ATP         0.0950
     41 H8         -0.9697   -3.6300    1.2371 H         1 ATP         0.1135
     42 HN62       -6.4060   -2.5723   -1.2840 H         1 ATP         0.3588
     43 H2         -4.8409    1.4176    0.1757 H         1 ATP         0.0302
     44 H44        -6.0768   -0.2826   -0.7263 H         1 ATP         0.4215
@<TRIPOS>BOND
     1    1    2 2
     2    1    3 1
     3    1    4 1
     4    1    8 1
     5    4   32 1
     6    5    6 2
     7    5    7 1
     8    5    8 1
     9    5   12 1
    10    9   10 2
    11    9   11 1
    12    9   12 1
    13    9   13 1
    14   13   14 1
    15   14   15 1
    16   14   33 1
    17   14   34 1
    18   15   16 1
    19   15   17 1
    20   15   35 1
    21   16   21 1
    22   17   18 1
    23   17   19 1
    24   17   36 1
    25   18   37 1
    26   19   20 1
    27   19   21 1
    28   19   38 1
    29   20   39 1
    30   21   22 1
    31   21   40 1
    32   22   23 ar
    33   22   31 ar
    34   23   24 ar
    35   23   41 1
    36   24   25 ar
    37   25   26 ar
    38   25   31 ar
    39   26   27 2
    40   26   28 ar
    41   27   42 1
    42   28   29 ar
    43   28   44 1
    44   29   30 ar
    45   29   43 1
    46   30   31 ar
@<TRIPOS>SUBSTRUCTURE
     1 ATP         1 GROUP 0 A     ****
@<TRIPOS>MOLECULE
[[[3,4-dihydroxy-5-(6-imino-1~{H}-purin-9-yl)tetrahydrofuran-2-yl]methoxy-oxido-phosphoryl]oxy-oxido-phosphoryl] hydrogen phosphate
   44    46     1     0     0
SMALL
USER_CHARGES

@<TRIPOS>ATOM
      1 PG         -7.8169    2.1854    0.2865 P.3       1 ATP         1.5257
      2 O1G        -8.2844    0.7597    0.0959 O.co2     1 ATP        -0.8737
      3 O2G        -8.1101    3.2449   -0.7523 O.co2     1 ATP        -0.8737
      4 O3G        -8.3514    2.7173    1.7347 O.3       1 ATP        -0.7971
      5 PB         -4.9619    1.7667   -0.3595 P.3       1 ATP         1.6824
      6 O1B        -5.0343    0.2816   -0.6364 O.co2     1 ATP        -0.8925
      7 O2B        -4.8620    2.7698   -1.4870 O.co2     1 ATP        -0.8925
      8 O3B        -6.2154    2.1817    0.6008 O.3       1 ATP        -0.8047
      9 PA         -3.3161    3.4234    1.4576 P.3       1 ATP         1.5908
     10 O1A        -4.4240    3.8228    2.4080 O.co2     1 ATP        -0.8932
     11 O2A        -2.7985    4.3960    0.4204 O.co2     1 ATP        -0.8932
     12 O3A        -3.7485    2.0435    0.6969 O.3       1 ATP        -0.8088
     13 O5'        -2.0401    2.8620    2.3128 O.3       1 ATP        -0.5646
     14 C5'        -0.8811    2.4285    1.6206 C.3       1 ATP         0.2204
     15 C4'        -0.1994    1.3333    2.4288 C.3       1 ATP         0.0965
     16 O4'        -1.1285    0.2356    2.5840 O.3       1 ATP        -0.3907
     17 C3'         1.0324    0.7610    1.7344 C.3       1 ATP         0.0763
     18 O3'         1.9175    0.2377    2.7247 O.3       1 ATP        -0.5884
     19 C2'         0.4468   -0.3802    0.9263 C.3       1 ATP         0.0784
     20 O2'         1.3993   -1.3703    0.5961 O.3       1 ATP        -0.6085
     21 C1'        -0.6159   -0.9100    1.8769 C.3       1 ATP         0.2186
     22 N9         -1.7127   -1.6108    1.2130 N.pl3     1 ATP        -0.1699
     23 C8         -1.6202   -2.3321    0.0482 C.ar      1 ATP         0.4438
     24 N7         -2.7754   -2.8539   -0.3142 N.2       1 ATP        -0.6280
     25 C5         -3.6439   -2.4502    0.6592 C.ar      1 ATP         0.2109
     26 C6         -5.0563   -2.7308    0.7745 C.ar      1 ATP         0.6180
     27 N6         -5.6468   -3.4480   -0.1158 N.2       1 ATP        -0.8319
     28 N1         -5.5549   -2.1241    1.9191 N.pl3     1 ATP        -0.8664
     29 C2         -4.8068   -1.3637    2.8153 C.ar      1 ATP         0.5952
     30 N3         -3.5318   -1.0957    2.7338 N.2       1 ATP        -0.5599
     31 C4         -3.0130   -1.6778    1.6196 C.ar      1 ATP         0.0076
     32 HOG3       -8.1284    3.6329    2.0071 H         1 ATP         0.4101
     33 H5'1       -1.1767    2.0502    0.6368 H         1 ATP         0.0364
     34 H5'2       -0.2080    3.2814    1.4876 H         1 ATP         0.0364
     35 H4'         0.0403    1.7078    3.4343 H         1 ATP         0.0945
     36 H3'         1.5907    1.4859    1.1353 H         1 ATP         0.0703
     37 HO3'        2.6839   -0.1150    2.2479 H         1 ATP         0.4099
     38 H2'        -0.0017    0.0018    0.0005 H         1 ATP         0.0676
     39 HO2'        2.0953   -0.9375    0.0709 H         1 ATP         0.4291
     40 H1'        -0.1998   -1.6319    2.6178 H         1 ATP         0.0950
     41 H8         -0.6865   -2.4395   -0.4871 H         1 ATP         0.1135
     42 HN62       -6.6394   -3.5426    0.1257 H         1 ATP         0.3588
     43 H2         -5.4125   -0.9811    3.6517 H         1 ATP         0.0302
     44 H44        -6.5442   -2.2475    2.1195 H         1 ATP         0.4215
@<TRIPOS>BOND
     1    1    2 2
     2    1    3 1
     3    1    4 1
     4    1    8 1
     5    4   32 1
     6    5    6 2
     7    5    7 1
     8    5    8 1
     9    5   12 1
    10    9   10 2
    11    9   11 1
    12    9   12 1
    13    9   13 1
    14   13   14 1
    15   14   15 1
    16   14   33 1
    17   14   34 1
    18   15   16 1
    19   15   17 1
    20   15   35 1
    21   16   21 1
    22   17   18 1
    23   17   19 1
    24   17   36 1
    25   18   37 1
    26   19   20 1
    27   19   21 1
    28   19   38 1
    29   20   39 1
    30   21   22 1
    31   21   40 1
    32   22   23 ar
    33   22   31 ar
    34   23   24 ar
    35   23   41 1
    36   24   25 ar
    37   25   26 ar
    38   25   31 ar
    39   26   27 2
    40   26   28 ar
    41   27   42 1
    42   28   29 ar
    43   28   44 1
    44   29   30 ar
    45   29   43 1
    46   30   31 ar
@<TRIPOS>SUBSTRUCTURE
     1 ATP         1 GROUP 0 A     ****
@<TRIPOS>MOLECULE
[[[3,4-dihydroxy-5-(6-imino-1~{H}-purin-9-yl)tetrahydrofuran-2-yl]methoxy-oxido-phosphoryl]oxy-oxido-phosphoryl] hydrogen phosphate
   44    46     1     0     0
SMALL
USER_CHARGES

@<TRIPOS>ATOM
      1 PG          0.1619    1.0677   -4.4598 P.3       1 ATP         1.5257
      2 O1G         1.4357    1.4639   -5.1725 O.co2     1 ATP        -0.8737
      3 O2G        -1.1843    1.2186   -5.1327 O.co2     1 ATP        -0.8737
      4 O3G         0.3139   -0.4741   -3.9444 O.3       1 ATP        -0.7971
      5 PB         -0.0304    3.3957   -2.6469 P.3       1 ATP         1.6824
      6 O1B         1.2194    4.1125   -3.1071 O.co2     1 ATP        -0.8925
      7 O2B        -1.4041    3.8665   -3.0697 O.co2     1 ATP        -0.8925
      8 O3B         0.1132    1.8097   -3.0070 O.3       1 ATP        -0.8047
      9 PA         -0.0889    4.4444    0.1193 P.3       1 ATP         1.5908
     10 O1A        -1.4612    5.0791    0.0540 O.co2     1 ATP        -0.8932
     11 O2A         1.1609    5.2932    0.0332 O.co2     1 ATP        -0.8932
     12 O3A         0.0043    3.2762   -1.0192 O.3       1 ATP        -0.8088
     13 O5'         0.0178    3.5131    1.4595 O.3       1 ATP        -0.5646
     14 C5'        -0.8811    2.4285    1.6206 C.3       1 ATP         0.2204
     15 C4'        -0.1994    1.3333    2.4288 C.3       1 ATP         0.0965
     16 O4'        -1.1285    0.2356    2.5840 O.3       1 ATP        -0.3907
     17 C3'         1.0324    0.7610    1.7344 C.3       1 ATP         0.0763
     18 O3'         1.9175    0.2377    2.7247 O.3       1 ATP        -0.5884
     19 C2'         0.4468   -0.3802    0.9263 C.3       1 ATP         0.0784
     20 O2'         1.3993   -1.3703    0.5961 O.3       1 ATP        -0.6085
     21 C1'        -0.6159   -0.9100    1.8769 C.3       1 ATP         0.2186
     22 N9         -1.7127   -1.6108    1.2130 N.pl3     1 ATP        -0.1699
     23 C8         -2.8662   -1.0361    0.7388 C.ar      1 ATP         0.4438
     24 N7         -3.6774   -1.9166    0.1867 N.2       1 ATP        -0.6280
     25 C5         -3.0159   -3.1045    0.3122 C.ar      1 ATP         0.2109
     26 C6         -3.4377   -4.4169   -0.1199 C.ar      1 ATP         0.6180
     27 N6         -4.5720   -4.5691   -0.7080 N.2       1 ATP        -0.8319
     28 N1         -2.4600   -5.3463    0.2071 N.pl3     1 ATP        -0.8664
     29 C2         -1.2595   -5.0554    0.8515 C.ar      1 ATP         0.5952
     30 N3         -0.8555   -3.8803    1.2516 N.2       1 ATP        -0.5599
     31 C4         -1.7946   -2.9457    0.9448 C.ar      1 ATP         0.0076
     32 HOG3       -0.4358   -0.8804   -3.4595 H         1 ATP         0.4101
     33 H5'1       -1.7771    2.7849    2.1387 H         1 ATP         0.0364
     34 H5'2       -1.1654    2.0541    0.6320 H         1 ATP         0.0364
     35 H4'         0.0403    1.7078    3.4343 H         1 ATP         0.0945
     36 H3'         1.5907    1.4859    1.1353 H         1 ATP         0.0703
     37 HO3'        2.6839   -0.1150    2.2479 H         1 ATP         0.4099
     38 H2'        -0.0017    0.0018    0.0005 H         1 ATP         0.0676
     39 HO2'        2.0953   -0.9375    0.0709 H         1 ATP         0.4291
     40 H1'        -0.1998   -1.6319    2.6178 H         1 ATP         0.0950
     41 H8         -3.0558    0.0252    0.8256 H         1 ATP         0.1135
     42 HN62       -4.7047   -5.5592   -0.9421 H         1 ATP         0.3588
     43 H2         -0.6372   -5.9505    1.0077 H         1 ATP         0.0302
     44 H44        -2.6338   -6.3155   -0.0469 H         1 ATP         0.4215
@<TRIPOS>BOND
     1    1    2 2
     2    1    3 1
     3    1    4 1
     4    1    8 1
     5    4   32 1
     6    5    6 2
     7    5    7 1
     8    5    8 1
     9    5   12 1
    10    9   10 2
    11    9   11 1
    12    9   12 1
    13    9   13 1
    14   13   14 1
    15   14   15 1
    16   14   33 1
    17   14   34 1
    18   15   16 1
    19   15   17 1
    20   15   35 1
    21   16   21 1
    22   17   18 1
    23   17   19 1
    24   17   36 1
    25   18   37 1
    26   19   20 1
    27   19   21 1
    28   19   38 1
    29   20   39 1
    30   21   22 1
    31   21   40 1
    32   22   23 ar
    33   22   31 ar
    34   23   24 ar
    35   23   41 1
    36   24   25 ar
    37   25   26 ar
    38   25   31 ar
    39   26   27 2
    40   26   28 ar
    41   27   42 1
    42   28   29 ar
    43   28   44 1
    44   29   30 ar
    45   29   43 1
    46   30   31 ar
@<TRIPOS>SUBSTRUCTURE
     1 ATP         1 GROUP 0 A     ****
@<TRIPOS>MOLECULE
[[[3,4-dihydroxy-5-(6-imino-1~{H}-purin-9-yl)tetrahydrofuran-2-yl]methoxy-oxido-phosphoryl]oxy-oxido-phosphoryl] hydrogen phosphate
   44    46     1     0     0
SMALL
USER_CHARGES

@<TRIPOS>ATOM
      1 PG          0.9205    2.8064   -3.5163 P.3       1 ATP         1.5257
      2 O1G         1.2487    2.0574   -2.2440 O.co2     1 ATP        -0.8737
      3 O2G         1.9433    3.7051   -4.1750 O.co2     1 ATP        -0.8737
      4 O3G         0.3816    1.7351   -4.6244 O.3       1 ATP        -0.7971
      5 PB         -0.7639    4.9217   -2.3198 P.3       1 ATP         1.6824
      6 O1B         0.2629    5.9981   -2.5929 O.co2     1 ATP        -0.8925
      7 O2B        -2.2453    5.2232   -2.3633 O.co2     1 ATP        -0.8925
      8 O3B        -0.4599    3.6487   -3.2959 O.3       1 ATP        -0.8047
      9 PA         -0.4665    4.8322    0.6228 P.3       1 ATP         1.5908
     10 O1A        -1.9050    5.1497    0.9698 O.co2     1 ATP        -0.8932
     11 O2A         0.6096    5.8892    0.7429 O.co2     1 ATP        -0.8932
     12 O3A        -0.4148    4.2162   -0.8897 O.3       1 ATP        -0.8088
     13 O5'         0.0178    3.5131    1.4595 O.3       1 ATP        -0.5646
     14 C5'        -0.8811    2.4285    1.6206 C.3       1 ATP         0.2204
     15 C4'        -0.1994    1.3333    2.4288 C.3       1 ATP         0.0965
     16 O4'        -1.1285    0.2356    2.5840 O.3       1 ATP        -0.3907
     17 C3'         1.0324    0.7610    1.7344 C.3       1 ATP         0.0763
     18 O3'         1.9175    0.2377    2.7247 O.3       1 ATP        -0.5884
     19 C2'         0.4468   -0.3802    0.9263 C.3       1 ATP         0.0784
     20 O2'         1.3993   -1.3703    0.5961 O.3       1 ATP        -0.6085
     21 C1'        -0.6159   -0.9100    1.8769 C.3       1 ATP         0.2186
     22 N9         -1.7127   -1.6108    1.2130 N.pl3     1 ATP        -0.1699
     23 C8         -1.7690   -2.9583    0.9549 C.ar      1 ATP         0.4438
     24 N7         -2.8827   -3.3076    0.3418 N.2       1 ATP        -0.6280
     25 C5         -3.5683   -2.1351    0.2017 C.ar      1 ATP         0.2109
     26 C6         -4.8617   -1.9185   -0.4044 C.ar      1 ATP         0.6180
     27 N6         -5.5166   -2.9094   -0.8993 N.2       1 ATP        -0.8319
     28 N1         -5.1837   -0.5701   -0.3344 N.pl3     1 ATP        -0.8664
     29 C2         -4.3821    0.4180    0.2330 C.ar      1 ATP         0.5952
     30 N3         -3.2117    0.2488    0.7860 N.2       1 ATP        -0.5599
     31 C4         -2.8672   -1.0657    0.7327 C.ar      1 ATP         0.0076
     32 HOG3        0.1254    2.0690   -5.5105 H         1 ATP         0.4101
     33 H5'1       -1.7771    2.7849    2.1387 H         1 ATP         0.0364
     34 H5'2       -1.1654    2.0541    0.6320 H         1 ATP         0.0364
     35 H4'         0.0403    1.7078    3.4343 H         1 ATP         0.0945
     36 H3'         1.5907    1.4859    1.1353 H         1 ATP         0.0703
     37 HO3'        2.1521    0.9800    3.3017 H         1 ATP         0.4099
     38 H2'        -0.0017    0.0018    0.0005 H         1 ATP         0.0676
     39 HO2'        0.9369   -2.0558    0.0825 H         1 ATP         0.4291
     40 H1'        -0.1998   -1.6319    2.6178 H         1 ATP         0.0950
     41 H8         -0.9697   -3.6300    1.2371 H         1 ATP         0.1135
     42 HN62       -6.4060   -2.5723   -1.2840 H         1 ATP         0.3588
     43 H2         -4.8409    1.4176    0.1757 H         1 ATP         0.0302
     44 H44        -6.0768   -0.2826   -0.7263 H         1 ATP         0.4215
@<TRIPOS>BOND
     1    1    2 2
     2    1    3 1
     3    1    4 1
     4    1    8 1
     5    4   32 1
     6    5    6 2
     7    5    7 1
     8    5    8 1
     9    5   12 1
    10    9   10 2
    11    9   11 1
    12    9   12 1
    13    9   13 1
    14   13   14 1
    15   14   15 1
    16   14   33 1
    17   14   34 1
    18   15   16 1
    19   15   17 1
    20   15   35 1
    21   16   21 1
    22   17   18 1
    23   17   19 1
    24   17   36 1
    25   18   37 1
    26   19   20 1
    27   19   21 1
    28   19   38 1
    29   20   39 1
    30   21   22 1
    31   21   40 1
    32   22   23 ar
    33   22   31 ar
    34   23   24 ar
    35   23   41 1
    36   24   25 ar
    37   25   26 ar
    38   25   31 ar
    39   26   27 2
    40   26   28 ar
    41   27   42 1
    42   28   29 ar
    43   28   44 1
    44   29   30 ar
    45   29   43 1
    46   30   31 ar
@<TRIPOS>SUBSTRUCTURE
     1 ATP         1 GROUP 0 A     ****
@<TRIPOS>MOLECULE
[[[3,4-dihydroxy-5-(6-imino-1~{H}-purin-9-yl)tetrahydrofuran-2-yl]methoxy-oxido-phosphoryl]oxy-oxido-phosphoryl] hydrogen phosphate
   44    46     1     0     0
SMALL
USER_CHARGES

@<TRIPOS>ATOM
      1 PG         -5.1555    4.7528   -2.3962 P.3       1 ATP         1.5257
      2 O1G        -4.3938    5.0293   -3.6732 O.co2     1 ATP        -0.8737
      3 O2G        -6.2756    5.6642   -1.9464 O.co2     1 ATP        -0.8737
      4 O3G        -5.7228    3.2227   -2.4516 O.3       1 ATP        -0.7971
      5 PB         -3.0946    5.6738   -0.4862 P.3       1 ATP         1.6824
      6 O1B        -2.0463    6.0749   -1.4999 O.co2     1 ATP        -0.8925
      7 O2B        -3.9319    6.7117    0.2274 O.co2     1 ATP        -0.8925
      8 O3B        -4.0919    4.5772   -1.1707 O.3       1 ATP        -0.8047
      9 PA         -3.0798    3.8627    1.8536 P.3       1 ATP         1.5908
     10 O1A        -3.9736    2.7897    1.2703 O.co2     1 ATP        -0.8932
     11 O2A        -3.6162    4.8491    2.8679 O.co2     1 ATP        -0.8932
     12 O3A        -2.4007    4.7039    0.6285 O.3       1 ATP        -0.8088
     13 O5'        -1.7336    3.1724    2.4750 O.3       1 ATP        -0.5646
     14 C5'        -0.8811    2.4285    1.6206 C.3       1 ATP         0.2204
     15 C4'        -0.1994    1.3333    2.4288 C.3       1 ATP         0.0965
     16 O4'        -1.1285    0.2356    2.5840 O.3       1 ATP        -0.3907
     17 C3'         1.0324    0.7610    1.7344 C.3       1 ATP         0.0763
     18 O3'         1.9175    0.2377    2.7247 O.3       1 ATP        -0.5884
     19 C2'         0.4468   -0.3802    0.9263 C.3       1 ATP         0.0784
     20 O2'         1.3993   -1.3703    0.5961 O.3       1 ATP        -0.6085
     21 C1'        -0.6159   -0.9100    1.8769 C.3       1 ATP         0.2186
     22 N9         -1.7127   -1.6108    1.2130 N.pl3     1 ATP        -0.1699
     23 C8         -2.8662   -1.0361    0.7388 C.ar      1 ATP         0.4438
     24 N7         -3.6774   -1.9166    0.1867 N.2       1 ATP        -0.6280
     25 C5         -3.0159   -3.1045    0.3122 C.ar      1 ATP         0.2109
     26 C6         -3.4377   -4.4169   -0.1199 C.ar      1 ATP         0.6180
     27 N6         -4.5720   -4.5691   -0.7080 N.2       1 ATP        -0.8319
     28 N1         -2.4600   -5.3463    0.2071 N.pl3     1 ATP        -0.8664
     29 C2         -1.2595   -5.0554    0.8515 C.ar      1 ATP         0.5952
     30 N3         -0.8555   -3.8803    1.2516 N.2       1 ATP        -0.5599
     31 C4         -1.7946   -2.9457    0.9448 C.ar      1 ATP         0.0076
     32 HOG3       -6.2428    2.8897   -1.6894 H         1 ATP         0.4101
     33 H5'1       -1.4800    1.9927    0.8146 H         1 ATP         0.0364
     34 H5'2       -0.1367    3.1040    1.1872 H         1 ATP         0.0364
     35 H4'         0.0403    1.7078    3.4343 H         1 ATP         0.0945
     36 H3'         1.5907    1.4859    1.1353 H         1 ATP         0.0703
     37 HO3'        2.6839   -0.1150    2.2479 H         1 ATP         0.4099
     38 H2'        -0.0017    0.0018    0.0005 H         1 ATP         0.0676
     39 HO2'        2.0953   -0.9375    0.0709 H         1 ATP         0.4291
     40 H1'        -0.1998   -1.6319    2.6178 H         1 ATP         0.0950
     41 H8         -3.0558    0.0252    0.8256 H         1 ATP         0.1135
     42 HN62       -4.7047   -5.5592   -0.9421 H         1 ATP         0.3588
     43 H2         -0.6372   -5.9505    1.0077 H         1 ATP         0.0302
     44 H44        -2.6338   -6.3155   -0.0469 H         1 ATP         0.4215
@<TRIPOS>BOND
     1    1    2 2
     2    1    3 1
     3    1    4 1
     4    1    8 1
     5    4   32 1
     6    5    6 2
     7    5    7 1
     8    5    8 1
     9    5   12 1
    10    9   10 2
    11    9   11 1
    12    9   12 1
    13    9   13 1
    14   13   14 1
    15   14   15 1
    16   14   33 1
    17   14   34 1
    18   15   16 1
    19   15   17 1
    20   15   35 1
    21   16   21 1
    22   17   18 1
    23   17   19 1
    24   17   36 1
    25   18   37 1
    26   19   20 1
    27   19   21 1
    28   19   38 1
    29   20   39 1
    30   21   22 1
    31   21   40 1
    32   22   23 ar
    33   22   31 ar
    34   23   24 ar
    35   23   41 1
    36   24   25 ar
    37   25   26 ar
    38   25   31 ar
    39   26   27 2
    40   26   28 ar
    41   27   42 1
    42   28   29 ar
    43   28   44 1
    44   29   30 ar
    45   29   43 1
    46   30   31 ar
@<TRIPOS>SUBSTRUCTURE
     1 ATP         1 GROUP 0 A     ****
@<TRIPOS>MOLECULE
[[[3,4-dihydroxy-5-(6-imino-1~{H}-purin-9-yl)tetrahydrofuran-2-yl]methoxy-oxido-phosphoryl]oxy-oxido-phosphoryl] hydrogen phosphate
   44    46     1     0     0
SMALL
USER_CHARGES

@<TRIPOS>ATOM
      1 PG         -6.0801    3.4123   -1.8823 P.3       1 ATP         1.5257
      2 O1G        -5.2756    4.0264   -3.0062 O.co2     1 ATP        -0.8737
      3 O2G        -7.3438    4.0739   -1.3794 O.co2     1 ATP        -0.8737
      4 O3G        -6.4262    1.8662   -2.2769 O.3       1 ATP        -0.7971
      5 PB         -5.3881    2.3486    0.7885 P.3       1 ATP         1.6824
      6 O1B        -6.3838    3.1565    1.5906 O.co2     1 ATP        -0.8925
      7 O2B        -5.6263    0.8852    0.4897 O.co2     1 ATP        -0.8925
      8 O3B        -5.0915    3.1280   -0.6152 O.3       1 ATP        -0.8047
      9 PA         -3.0798    3.8627    1.8536 P.3       1 ATP         1.5908
     10 O1A        -3.8220    4.5968    2.9492 O.co2     1 ATP        -0.8932
     11 O2A        -2.6995    4.5681    0.5701 O.co2     1 ATP        -0.8932
     12 O3A        -3.9133    2.5109    1.4692 O.3       1 ATP        -0.8088
     13 O5'        -1.7336    3.1724    2.4750 O.3       1 ATP        -0.5646
     14 C5'        -0.8811    2.4285    1.6206 C.3       1 ATP         0.2204
     15 C4'        -0.1994    1.3333    2.4288 C.3       1 ATP         0.0965
     16 O4'        -1.1285    0.2356    2.5840 O.3       1 ATP        -0.3907
     17 C3'         1.0324    0.7610    1.7344 C.3       1 ATP         0.0763
     18 O3'         1.9175    0.2377    2.7247 O.3       1 ATP        -0.5884
     19 C2'         0.4468   -0.3802    0.9263 C.3       1 ATP         0.0784
     20 O2'         1.3993   -1.3703    0.5961 O.3       1 ATP        -0.6085
     21 C1'        -0.6159   -0.9100    1.8769 C.3       1 ATP         0.2186
     22 N9         -1.7127   -1.6108    1.2130 N.pl3     1 ATP        -0.1699
     23 C8         -2.5485   -1.0808    0.2609 C.ar      1 ATP         0.4438
     24 N7         -3.4476   -1.9486   -0.1593 N.2       1 ATP        -0.6280
     25 C5         -3.1762   -3.0816    0.5530 C.ar      1 ATP         0.2109
     26 C6         -3.8510   -4.3579    0.5006 C.ar      1 ATP         0.6180
     27 N6         -4.8468   -4.5293   -0.2961 N.2       1 ATP        -0.8319
     28 N1         -3.2499   -5.2342    1.3937 N.pl3     1 ATP        -0.8664
     29 C2         -2.1646   -4.9275    2.2116 C.ar      1 ATP         0.5952
     30 N3         -1.5382   -3.7840    2.2778 N.2       1 ATP        -0.5599
     31 C4         -2.1054   -2.9018    1.4120 C.ar      1 ATP         0.0076
     32 HOG3       -6.9479    1.3283   -1.6438 H         1 ATP         0.4101
     33 H5'1       -1.4800    1.9927    0.8146 H         1 ATP         0.0364
     34 H5'2       -0.1367    3.1040    1.1872 H         1 ATP         0.0364
     35 H4'         0.0403    1.7078    3.4343 H         1 ATP         0.0945
     36 H3'         1.5907    1.4859    1.1353 H         1 ATP         0.0703
     37 HO3'        2.1521    0.9800    3.3017 H         1 ATP         0.4099
     38 H2'        -0.0017    0.0018    0.0005 H         1 ATP         0.0676
     39 HO2'        0.9369   -2.0558    0.0825 H         1 ATP         0.4291
     40 H1'        -0.1998   -1.6319    2.6178 H         1 ATP         0.0950
     41 H8         -2.4515   -0.0599   -0.0829 H         1 ATP         0.1135
     42 HN62       -5.1990   -5.4882   -0.2005 H         1 ATP         0.3588
     43 H2         -1.8555   -5.7783    2.8388 H         1 ATP         0.0302
     44 H44        -3.6312   -6.1750    1.4526 H         1 ATP         0.4215
@<TRIPOS>BOND
     1    1    2 2
     2    1    3 1
     3    1    4 1
     4    1    8 1
     5    4   32 1
     6    5    6 2
     7    5    7 1
     8    5    8 1
     9    5   12 1
    10    9   10 2
    11    9   11 1
    12    9   12 1
    13    9   13 1
    14   13   14 1
    15   14   15 1
    16   14   33 1
    17   14   34 1
    18   15   16 1
    19   15   17 1
    20   15   35 1
    21   16   21 1
    22   17   18 1
    23   17   19 1
    24   17   36 1
    25   18   37 1
    26   19   20 1
    27   19   21 1
    28   19   38 1
    29   20   39 1
    30   21   22 1
    31   21   40 1
    32   22   23 ar
    33   22   31 ar
    34   23   24 ar
    35   23   41 1
    36   24   25 ar
    37   25   26 ar
    38   25   31 ar
    39   26   27 2
    40   26   28 ar
    41   27   42 1
    42   28   29 ar
    43   28   44 1
    44   29   30 ar
    45   29   43 1
    46   30   31 ar
@<TRIPOS>SUBSTRUCTURE
     1 ATP         1 GROUP 0 A     ****
@<TRIPOS>MOLECULE
[[[3,4-dihydroxy-5-(6-imino-1~{H}-purin-9-yl)tetrahydrofuran-2-yl]methoxy-oxido-phosphoryl]oxy-oxido-phosphoryl] hydrogen phosphate
   44    46     1     0     0
SMALL
USER_CHARGES

@<TRIPOS>ATOM
      1 PG         -4.5019    7.0831   -0.7230 P.3       1 ATP         1.5257
      2 O1G        -3.9119    8.3662   -1.2643 O.co2     1 ATP        -0.8737
      3 O2G        -5.7775    7.0963    0.0896 O.co2     1 ATP        -0.8737
      4 O3G        -4.6867    6.0344   -1.9608 O.3       1 ATP        -0.7971
      5 PB         -2.6061    6.6739    1.5090 P.3       1 ATP         1.6824
      6 O1B        -1.7516    7.8996    1.2741 O.co2     1 ATP        -0.8925
      7 O2B        -3.6214    6.6298    2.6292 O.co2     1 ATP        -0.8925
      8 O3B        -3.3517    6.2799    0.1110 O.3       1 ATP        -0.8047
      9 PA         -0.4665    4.8322    0.6228 P.3       1 ATP         1.5908
     10 O1A         0.6558    5.8467    0.5864 O.co2     1 ATP        -0.8932
     11 O2A        -1.1281    4.3644   -0.6552 O.co2     1 ATP        -0.8932
     12 O3A        -1.6297    5.3718    1.6355 O.3       1 ATP        -0.8088
     13 O5'         0.0178    3.5131    1.4595 O.3       1 ATP        -0.5646
     14 C5'        -0.8811    2.4285    1.6206 C.3       1 ATP         0.2204
     15 C4'        -0.1994    1.3333    2.4288 C.3       1 ATP         0.0965
     16 O4'        -1.1285    0.2356    2.5840 O.3       1 ATP        -0.3907
     17 C3'         1.0324    0.7610    1.7344 C.3       1 ATP         0.0763
     18 O3'         1.9175    0.2377    2.7247 O.3       1 ATP        -0.5884
     19 C2'         0.4468   -0.3802    0.9263 C.3       1 ATP         0.0784
     20 O2'         1.3993   -1.3703    0.5961 O.3       1 ATP        -0.6085
     21 C1'        -0.6159   -0.9100    1.8769 C.3       1 ATP         0.2186
     22 N9         -1.7127   -1.6108    1.2130 N.pl3     1 ATP        -0.1699
     23 C8         -2.8662   -1.0361    0.7388 C.ar      1 ATP         0.4438
     24 N7         -3.6774   -1.9166    0.1867 N.2       1 ATP        -0.6280
     25 C5         -3.0159   -3.1045    0.3122 C.ar      1 ATP         0.2109
     26 C6         -3.4377   -4.4169   -0.1199 C.ar      1 ATP         0.6180
     27 N6         -4.5720   -4.5691   -0.7080 N.2       1 ATP        -0.8319
     28 N1         -2.4600   -5.3463    0.2071 N.pl3     1 ATP        -0.8664
     29 C2         -1.2595   -5.0554    0.8515 C.ar      1 ATP         0.5952
     30 N3         -0.8555   -3.8803    1.2516 N.2       1 ATP        -0.5599
     31 C4         -1.7946   -2.9457    0.9448 C.ar      1 ATP         0.0076
     32 HOG3       -5.0617    5.1483   -1.7700 H         1 ATP         0.4101
     33 H5'1       -1.7771    2.7849    2.1387 H         1 ATP         0.0364
     34 H5'2       -1.1654    2.0541    0.6320 H         1 ATP         0.0364
     35 H4'         0.0403    1.7078    3.4343 H         1 ATP         0.0945
     36 H3'         1.5907    1.4859    1.1353 H         1 ATP         0.0703
     37 HO3'        2.6839   -0.1150    2.2479 H         1 ATP         0.4099
     38 H2'        -0.0017    0.0018    0.0005 H         1 ATP         0.0676
     39 HO2'        2.0953   -0.9375    0.0709 H         1 ATP         0.4291
     40 H1'        -0.1998   -1.6319    2.6178 H         1 ATP         0.0950
     41 H8         -3.0558    0.0252    0.8256 H         1 ATP         0.1135
     42 HN62       -4.7047   -5.5592   -0.9421 H         1 ATP         0.3588
     43 H2         -0.6372   -5.9505    1.0077 H         1 ATP         0.0302
     44 H44        -2.6338   -6.3155   -0.0469 H         1 ATP         0.4215
@<TRIPOS>BOND
     1    1    2 2
     2    1    3 1
     3    1    4 1
     4    1    8 1
     5    4   32 1
     6    5    6 2
     7    5    7 1
     8    5    8 1
     9    5   12 1
    10    9   10 2
    11    9   11 1
    12    9   12 1
    13    9   13 1
    14   13   14 1
    15   14   15 1
    16   14   33 1
    17   14   34 1
    18   15   16 1
    19   15   17 1
    20   15   35 1
    21   16   21 1
    22   17   18 1
    23   17   19 1
    24   17   36 1
    25   18   37 1
    26   19   20 1
    27   19   21 1
    28   19   38 1
    29   20   39 1
    30   21   22 1
    31   21   40 1
    32   22   23 ar
    33   22   31 ar
    34   23   24 ar
    35   23   41 1
    36   24   25 ar
    37   25   26 ar
    38   25   31 ar
    39   26   27 2
    40   26   28 ar
    41   27   42 1
    42   28   29 ar
    43   28   44 1
    44   29   30 ar
    45   29   43 1
    46   30   31 ar
@<TRIPOS>SUBSTRUCTURE
     1 ATP         1 GROUP 0 A     ****
@<TRIPOS>MOLECULE
[[[3,4-dihydroxy-5-(6-imino-1~{H}-purin-9-yl)tetrahydrofuran-2-yl]methoxy-oxido-phosphoryl]oxy-oxido-phosphoryl] hydrogen phosphate
   44    46     1     0     0
SMALL
USER_CHARGES

@<TRIPOS>ATOM
      1 PG          0.9579    8.7657    0.8909 P.3       1 ATP         1.5257
      2 O1G         2.4421    8.5312    1.0634 O.co2     1 ATP        -0.8737
      3 O2G         0.2705    9.9284    1.5716 O.co2     1 ATP        -0.8737
      4 O3G         0.6251    8.8297   -0.7063 O.3       1 ATP        -0.7971
      5 PB         -1.4278    7.0312    1.0987 P.3       1 ATP         1.6824
      6 O1B        -2.2170    7.8897    2.0620 O.co2     1 ATP        -0.8925
      7 O2B        -1.7722    6.9863   -0.3733 O.co2     1 ATP        -0.8925
      8 O3B         0.1570    7.3910    1.2548 O.3       1 ATP        -0.8047
      9 PA         -2.5926    4.4187    1.8556 P.3       1 ATP         1.5908
     10 O1A        -3.1164    4.0395    0.4873 O.co2     1 ATP        -0.8932
     11 O2A        -3.5302    4.9262    2.9294 O.co2     1 ATP        -0.8932
     12 O3A        -1.3848    5.5039    1.6734 O.3       1 ATP        -0.8088
     13 O5'        -1.7336    3.1724    2.4750 O.3       1 ATP        -0.5646
     14 C5'        -0.8811    2.4285    1.6206 C.3       1 ATP         0.2204
     15 C4'        -0.1994    1.3333    2.4288 C.3       1 ATP         0.0965
     16 O4'        -1.1285    0.2356    2.5840 O.3       1 ATP        -0.3907
     17 C3'         1.0324    0.7610    1.7344 C.3       1 ATP         0.0763
     18 O3'         1.9175    0.2377    2.7247 O.3       1 ATP        -0.5884
     19 C2'         0.4468   -0.3802    0.9263 C.3       1 ATP         0.0784
     20 O2'         1.3993   -1.3703    0.5961 O.3       1 ATP        -0.6085
     21 C1'        -0.6159   -0.9100    1.8769 C.3       1 ATP         0.2186
     22 N9         -1.7127   -1.6108    1.2130 N.pl3     1 ATP        -0.1699
     23 C8         -2.8662   -1.0361    0.7388 C.ar      1 ATP         0.4438
     24 N7         -3.6774   -1.9166    0.1867 N.2       1 ATP        -0.6280
     25 C5         -3.0159   -3.1045    0.3122 C.ar      1 ATP         0.2109
     26 C6         -3.4377   -4.4169   -0.1199 C.ar      1 ATP         0.6180
     27 N6         -4.5720   -4.5691   -0.7080 N.2       1 ATP        -0.8319
     28 N1         -2.4600   -5.3463    0.2071 N.pl3     1 ATP        -0.8664
     29 C2         -1.2595   -5.0554    0.8515 C.ar      1 ATP         0.5952
     30 N3         -0.8555   -3.8803    1.2516 N.2       1 ATP        -0.5599
     31 C4         -1.7946   -2.9457    0.9448 C.ar      1 ATP         0.0076
     32 HOG3       -0.3040    8.9778   -0.9841 H         1 ATP         0.4101
     33 H5'1       -1.4800    1.9927    0.8146 H         1 ATP         0.0364
     34 H5'2       -0.1367    3.1040    1.1872 H         1 ATP         0.0364
     35 H4'         0.0403    1.7078    3.4343 H         1 ATP         0.0945
     36 H3'         1.5907    1.4859    1.1353 H         1 ATP         0.0703
     37 HO3'        2.6839   -0.1150    2.2479 H         1 ATP         0.4099
     38 H2'        -0.0017    0.0018    0.0005 H         1 ATP         0.0676
     39 HO2'        2.0953   -0.9375    0.0709 H         1 ATP         0.4291
     40 H1'        -0.1998   -1.6319    2.6178 H         1 ATP         0.0950
     41 H8         -3.0558    0.0252    0.8256 H         1 ATP         0.1135
     42 HN62       -4.7047   -5.5592   -0.9421 H         1 ATP         0.3588
     43 H2         -0.6372   -5.9505    1.0077 H         1 ATP         0.0302
     44 H44        -2.6338   -6.3155   -0.0469 H         1 ATP         0.4215
@<TRIPOS>BOND
     1    1    2 2
     2    1    3 1
     3    1    4 1
     4    1    8 1
     5    4   32 1
     6    5    6 2
     7    5    7 1
     8    5    8 1
     9    5   12 1
    10    9   10 2
    11    9   11 1
    12    9   12 1
    13    9   13 1
    14   13   14 1
    15   14   15 1
    16   14   33 1
    17   14   34 1
    18   15   16 1
    19   15   17 1
    20   15   35 1
    21   16   21 1
    22   17   18 1
    23   17   19 1
    24   17   36 1
    25   18   37 1
    26   19   20 1
    27   19   21 1
    28   19   38 1
    29   20   39 1
    30   21   22 1
    31   21   40 1
    32   22   23 ar
    33   22   31 ar
    34   23   24 ar
    35   23   41 1
    36   24   25 ar
    37   25   26 ar
    38   25   31 ar
    39   26   27 2
    40   26   28 ar
    41   27   42 1
    42   28   29 ar
    43   28   44 1
    44   29   30 ar
    45   29   43 1
    46   30   31 ar
@<TRIPOS>SUBSTRUCTURE
     1 ATP         1 GROUP 0 A     ****
@<TRIPOS>MOLECULE
[[[3,4-dihydroxy-5-(6-imino-1~{H}-purin-9-yl)tetrahydrofuran-2-yl]methoxy-oxido-phosphoryl]oxy-oxido-phosphoryl] hydrogen phosphate
   44    46     1     0     0
SMALL
USER_CHARGES

@<TRIPOS>ATOM
      1 PG         -5.2155    3.1578   -2.9564 P.3       1 ATP         1.5257
      2 O1G        -6.5472    3.8287   -2.7037 O.co2     1 ATP        -0.8737
      3 O2G        -5.1147    1.9429   -3.8518 O.co2     1 ATP        -0.8737
      4 O3G        -4.1603    4.2838   -3.4898 O.3       1 ATP        -0.7971
      5 PB         -4.9619    1.7667   -0.3595 P.3       1 ATP         1.6824
      6 O1B        -6.2579    2.2482    0.2537 O.co2     1 ATP        -0.8925
      7 O2B        -4.8252    0.3599   -0.8978 O.co2     1 ATP        -0.8925
      8 O3B        -4.5111    2.8188   -1.5237 O.3       1 ATP        -0.8047
      9 PA         -3.3161    3.4234    1.4576 P.3       1 ATP         1.5908
     10 O1A        -4.4240    3.8228    2.4080 O.co2     1 ATP        -0.8932
     11 O2A        -2.7985    4.3960    0.4204 O.co2     1 ATP        -0.8932
     12 O3A        -3.7485    2.0435    0.6969 O.3       1 ATP        -0.8088
     13 O5'        -2.0401    2.8620    2.3128 O.3       1 ATP        -0.5646
     14 C5'        -0.8811    2.4285    1.6206 C.3       1 ATP         0.2204
     15 C4'        -0.1994    1.3333    2.4288 C.3       1 ATP         0.0965
     16 O4'        -1.1285    0.2356    2.5840 O.3       1 ATP        -0.3907
     17 C3'         1.0324    0.7610    1.7344 C.3       1 ATP         0.0763
     18 O3'         1.9175    0.2377    2.7247 O.3       1 ATP        -0.5884
     19 C2'         0.4468   -0.3802    0.9263 C.3       1 ATP         0.0784
     20 O2'         1.3993   -1.3703    0.5961 O.3       1 ATP        -0.6085
     21 C1'        -0.6159   -0.9100    1.8769 C.3       1 ATP         0.2186
     22 N9         -1.7127   -1.6108    1.2130 N.pl3     1 ATP        -0.1699
     23 C8         -1.6202   -2.3321    0.0482 C.ar      1 ATP         0.4438
     24 N7         -2.7754   -2.8539   -0.3142 N.2       1 ATP        -0.6280
     25 C5         -3.6439   -2.4502    0.6592 C.ar      1 ATP         0.2109
     26 C6         -5.0563   -2.7308    0.7745 C.ar      1 ATP         0.6180
     27 N6         -5.6468   -3.4480   -0.1158 N.2       1 ATP        -0.8319
     28 N1         -5.5549   -2.1241    1.9191 N.pl3     1 ATP        -0.8664
     29 C2         -4.8068   -1.3637    2.8153 C.ar      1 ATP         0.5952
     30 N3         -3.5318   -1.0957    2.7338 N.2       1 ATP        -0.5599
     31 C4         -3.0130   -1.6778    1.6196 C.ar      1 ATP         0.0076
     32 HOG3       -3.2442    4.0029   -3.7000 H         1 ATP         0.4101
     33 H5'1       -1.1767    2.0502    0.6368 H         1 ATP         0.0364
     34 H5'2       -0.2080    3.2814    1.4876 H         1 ATP         0.0364
     35 H4'         0.0403    1.7078    3.4343 H         1 ATP         0.0945
     36 H3'         1.5907    1.4859    1.1353 H         1 ATP         0.0703
     37 HO3'        2.6839   -0.1150    2.2479 H         1 ATP         0.4099
     38 H2'        -0.0017    0.0018    0.0005 H         1 ATP         0.0676
     39 HO2'        2.0953   -0.9375    0.0709 H         1 ATP         0.4291
     40 H1'        -0.1998   -1.6319    2.6178 H         1 ATP         0.0950
     41 H8         -0.6865   -2.4395   -0.4871 H         1 ATP         0.1135
     42 HN62       -6.6394   -3.5426    0.1257 H         1 ATP         0.3588
     43 H2         -5.4125   -0.9811    3.6517 H         1 ATP         0.0302
     44 H44        -6.5442   -2.2475    2.1195 H         1 ATP         0.4215
@<TRIPOS>BOND
     1    1    2 2
     2    1    3 1
     3    1    4 1
     4    1    8 1
     5    4   32 1
     6    5    6 2
     7    5    7 1
     8    5    8 1
     9    5   12 1
    10    9   10 2
    11    9   11 1
    12    9   12 1
    13    9   13 1
    14   13   14 1
    15   14   15 1
    16   14   33 1
    17   14   34 1
    18   15   16 1
    19   15   17 1
    20   15   35 1
    21   16   21 1
    22   17   18 1
    23   17   19 1
    24   17   36 1
    25   18   37 1
    26   19   20 1
    27   19   21 1
    28   19   38 1
    29   20   39 1
    30   21   22 1
    31   21   40 1
    32   22   23 ar
    33   22   31 ar
    34   23   24 ar
    35   23   41 1
    36   24   25 ar
    37   25   26 ar
    38   25   31 ar
    39   26   27 2
    40   26   28 ar
    41   27   42 1
    42   28   29 ar
    43   28   44 1
    44   29   30 ar
    45   29   43 1
    46   30   31 ar
@<TRIPOS>SUBSTRUCTURE
     1 ATP         1 GROUP 0 A     ****
@<TRIPOS>MOLECULE
[[[3,4-dihydroxy-5-(6-imino-1~{H}-purin-9-yl)tetrahydrofuran-2-yl]methoxy-oxido-phosphoryl]oxy-oxido-phosphoryl] hydrogen phosphate
   44    46     1     0     0
SMALL
USER_CHARGES

@<TRIPOS>ATOM
      1 PG         -1.6089    9.4524    1.3376 P.3       1 ATP         1.5257
      2 O1G        -2.2552    9.9833    2.5976 O.co2     1 ATP        -0.8737
      3 O2G        -2.1708    9.7894   -0.0257 O.co2     1 ATP        -0.8737
      4 O3G        -0.0258    9.8515    1.3589 O.3       1 ATP        -0.7971
      5 PB         -2.6061    6.6739    1.5090 P.3       1 ATP         1.6824
      6 O1B        -3.3882    6.8202    2.7953 O.co2     1 ATP        -0.8925
      7 O2B        -3.3047    6.6283    0.1683 O.co2     1 ATP        -0.8925
      8 O3B        -1.4563    7.8321    1.4610 O.3       1 ATP        -0.8047
      9 PA         -0.4665    4.8322    0.6228 P.3       1 ATP         1.5908
     10 O1A         0.6558    5.8467    0.5864 O.co2     1 ATP        -0.8932
     11 O2A        -1.1281    4.3644   -0.6552 O.co2     1 ATP        -0.8932
     12 O3A        -1.6297    5.3718    1.6355 O.3       1 ATP        -0.8088
     13 O5'         0.0178    3.5131    1.4595 O.3       1 ATP        -0.5646
     14 C5'        -0.8811    2.4285    1.6206 C.3       1 ATP         0.2204
     15 C4'        -0.1994    1.3333    2.4288 C.3       1 ATP         0.0965
     16 O4'        -1.1285    0.2356    2.5840 O.3       1 ATP        -0.3907
     17 C3'         1.0324    0.7610    1.7344 C.3       1 ATP         0.0763
     18 O3'         1.9175    0.2377    2.7247 O.3       1 ATP        -0.5884
     19 C2'         0.4468   -0.3802    0.9263 C.3       1 ATP         0.0784
     20 O2'         1.3993   -1.3703    0.5961 O.3       1 ATP        -0.6085
     21 C1'        -0.6159   -0.9100    1.8769 C.3       1 ATP         0.2186
     22 N9         -1.7127   -1.6108    1.2130 N.pl3     1 ATP        -0.1699
     23 C8         -2.8662   -1.0361    0.7388 C.ar      1 ATP         0.4438
     24 N7         -3.6774   -1.9166    0.1867 N.2       1 ATP        -0.6280
     25 C5         -3.0159   -3.1045    0.3122 C.ar      1 ATP         0.2109
     26 C6         -3.4377   -4.4169   -0.1199 C.ar      1 ATP         0.6180
     27 N6         -4.5720   -4.5691   -0.7080 N.2       1 ATP        -0.8319
     28 N1         -2.4600   -5.3463    0.2071 N.pl3     1 ATP        -0.8664
     29 C2         -1.2595   -5.0554    0.8515 C.ar      1 ATP         0.5952
     30 N3         -0.8555   -3.8803    1.2516 N.2       1 ATP        -0.5599
     31 C4         -1.7946   -2.9457    0.9448 C.ar      1 ATP         0.0076
     32 HOG3        0.5355    9.5756    0.6032 H         1 ATP         0.4101
     33 H5'1       -1.7771    2.7849    2.1387 H         1 ATP         0.0364
     34 H5'2       -1.1654    2.0541    0.6320 H         1 ATP         0.0364
     35 H4'         0.0403    1.7078    3.4343 H         1 ATP         0.0945
     36 H3'         1.5907    1.4859    1.1353 H         1 ATP         0.0703
     37 HO3'        2.6839   -0.1150    2.2479 H         1 ATP         0.4099
     38 H2'        -0.0017    0.0018    0.0005 H         1 ATP         0.0676
     39 HO2'        2.0953   -0.9375    0.0709 H         1 ATP         0.4291
     40 H1'        -0.1998   -1.6319    2.6178 H         1 ATP         0.0950
     41 H8         -3.0558    0.0252    0.8256 H         1 ATP         0.1135
     42 HN62       -4.7047   -5.5592   -0.9421 H         1 ATP         0.3588
     43 H2         -0.6372   -5.9505    1.0077 H         1 ATP         0.0302
     44 H44        -2.6338   -6.3155   -0.0469 H         1 ATP         0.4215
@<TRIPOS>BOND
     1    1    2 2
     2    1    3 1
     3    1    4 1
     4    1    8 1
     5    4   32 1
     6    5    6 2
     7    5    7 1
     8    5    8 1
     9    5   12 1
    10    9   10 2
    11    9   11 1
    12    9   12 1
    13    9   13 1
    14   13   14 1
    15   14   15 1
    16   14   33 1
    17   14   34 1
    18   15   16 1
    19   15   17 1
    20   15   35 1
    21   16   21 1
    22   17   18 1
    23   17   19 1
    24   17   36 1
    25   18   37 1
    26   19   20 1
    27   19   21 1
    28   19   38 1
    29   20   39 1
    30   21   22 1
    31   21   40 1
    32   22   23 ar
    33   22   31 ar
    34   23   24 ar
    35   23   41 1
    36   24   25 ar
    37   25   26 ar
    38   25   31 ar
    39   26   27 2
    40   26   28 ar
    41   27   42 1
    42   28   29 ar
    43   28   44 1
    44   29   30 ar
    45   29   43 1
    46   30   31 ar
@<TRIPOS>SUBSTRUCTURE
     1 ATP         1 GROUP 0 A     ****
@<TRIPOS>MOLECULE
[[[3,4-dihydroxy-5-(6-imino-1~{H}-purin-9-yl)tetrahydrofuran-2-yl]methoxy-oxido-phosphoryl]oxy-oxido-phosphoryl] hydrogen phosphate
   44    46     1     0     0
SMALL
USER_CHARGES

@<TRIPOS>ATOM
      1 PG         -6.6413   -0.2666    0.2107 P.3       1 ATP         1.5257
      2 O1G        -7.9472    0.1216    0.8675 O.co2     1 ATP        -0.8737
      3 O2G        -6.1462   -1.6952    0.2493 O.co2     1 ATP        -0.8737
      4 O3G        -6.6761    0.2281   -1.3450 O.3       1 ATP        -0.7971
      5 PB         -5.3881    2.3486    0.7885 P.3       1 ATP         1.6824
      6 O1B        -5.3246    2.8596   -0.6336 O.co2     1 ATP        -0.8925
      7 O2B        -6.4294    2.8601    1.7589 O.co2     1 ATP        -0.8925
      8 O3B        -5.4592    0.7178    0.7560 O.3       1 ATP        -0.8047
      9 PA         -3.0798    3.8627    1.8536 P.3       1 ATP         1.5908
     10 O1A        -3.8220    4.5968    2.9492 O.co2     1 ATP        -0.8932
     11 O2A        -2.6995    4.5681    0.5701 O.co2     1 ATP        -0.8932
     12 O3A        -3.9133    2.5109    1.4692 O.3       1 ATP        -0.8088
     13 O5'        -1.7336    3.1724    2.4750 O.3       1 ATP        -0.5646
     14 C5'        -0.8811    2.4285    1.6206 C.3       1 ATP         0.2204
     15 C4'        -0.1994    1.3333    2.4288 C.3       1 ATP         0.0965
     16 O4'        -1.1285    0.2356    2.5840 O.3       1 ATP        -0.3907
     17 C3'         1.0324    0.7610    1.7344 C.3       1 ATP         0.0763
     18 O3'         1.9175    0.2377    2.7247 O.3       1 ATP        -0.5884
     19 C2'         0.4468   -0.3802    0.9263 C.3       1 ATP         0.0784
     20 O2'         1.3993   -1.3703    0.5961 O.3       1 ATP        -0.6085
     21 C1'        -0.6159   -0.9100    1.8769 C.3       1 ATP         0.2186
     22 N9         -1.7127   -1.6108    1.2130 N.pl3     1 ATP        -0.1699
     23 C8         -2.5485   -1.0808    0.2609 C.ar      1 ATP         0.4438
     24 N7         -3.4476   -1.9486   -0.1593 N.2       1 ATP        -0.6280
     25 C5         -3.1762   -3.0816    0.5530 C.ar      1 ATP         0.2109
     26 C6         -3.8510   -4.3579    0.5006 C.ar      1 ATP         0.6180
     27 N6         -4.8468   -4.5293   -0.2961 N.2       1 ATP        -0.8319
     28 N1         -3.2499   -5.2342    1.3937 N.pl3     1 ATP        -0.8664
     29 C2         -2.1646   -4.9275    2.2116 C.ar      1 ATP         0.5952
     30 N3         -1.5382   -3.7840    2.2778 N.2       1 ATP        -0.5599
     31 C4         -2.1054   -2.9018    1.4120 C.ar      1 ATP         0.0076
     32 HOG3       -5.8943    0.0485   -1.9096 H         1 ATP         0.4101
     33 H5'1       -1.4800    1.9927    0.8146 H         1 ATP         0.0364
     34 H5'2       -0.1367    3.1040    1.1872 H         1 ATP         0.0364
     35 H4'         0.0403    1.7078    3.4343 H         1 ATP         0.0945
     36 H3'         1.5907    1.4859    1.1353 H         1 ATP         0.0703
     37 HO3'        2.6839   -0.1150    2.2479 H         1 ATP         0.4099
     38 H2'        -0.0017    0.0018    0.0005 H         1 ATP         0.0676
     39 HO2'        2.0953   -0.9375    0.0709 H         1 ATP         0.4291
     40 H1'        -0.1998   -1.6319    2.6178 H         1 ATP         0.0950
     41 H8         -2.4515   -0.0599   -0.0829 H         1 ATP         0.1135
     42 HN62       -5.1990   -5.4882   -0.2005 H         1 ATP         0.3588
     43 H2         -1.8555   -5.7783    2.8388 H         1 ATP         0.0302
     44 H44        -3.6312   -6.1750    1.4526 H         1 ATP         0.4215
@<TRIPOS>BOND
     1    1    2 2
     2    1    3 1
     3    1    4 1
     4    1    8 1
     5    4   32 1
     6    5    6 2
     7    5    7 1
     8    5    8 1
     9    5   12 1
    10    9   10 2
    11    9   11 1
    12    9   12 1
    13    9   13 1
    14   13   14 1
    15   14   15 1
    16   14   33 1
    17   14   34 1
    18   15   16 1
    19   15   17 1
    20   15   35 1
    21   16   21 1
    22   17   18 1
    23   17   19 1
    24   17   36 1
    25   18   37 1
    26   19   20 1
    27   19   21 1
    28   19   38 1
    29   20   39 1
    30   21   22 1
    31   21   40 1
    32   22   23 ar
    33   22   31 ar
    34   23   24 ar
    35   23   41 1
    36   24   25 ar
    37   25   26 ar
    38   25   31 ar
    39   26   27 2
    40   26   28 ar
    41   27   42 1
    42   28   29 ar
    43   28   44 1
    44   29   30 ar
    45   29   43 1
    46   30   31 ar
@<TRIPOS>SUBSTRUCTURE
     1 ATP         1 GROUP 0 A     ****
@<TRIPOS>MOLECULE
[[[3,4-dihydroxy-5-(6-imino-1~{H}-purin-9-yl)tetrahydrofuran-2-yl]methoxy-oxido-phosphoryl]oxy-oxido-phosphoryl] hydrogen phosphate
   44    46     1     0     0
SMALL
USER_CHARGES

@<TRIPOS>ATOM
      1 PG          0.9967    7.7946    5.0491 P.3       1 ATP         1.5257
      2 O1G         1.3784    8.8494    4.0347 O.co2     1 ATP        -0.8737
      3 O2G         2.0430    7.1479    5.9292 O.co2     1 ATP        -0.8737
      4 O3G        -0.1838    8.3958    6.0035 O.3       1 ATP        -0.7971
      5 PB         -1.1961    6.7418    3.3678 P.3       1 ATP         1.6824
      6 O1B        -2.3500    7.2091    4.2267 O.co2     1 ATP        -0.8925
      7 O2B        -0.8308    7.4606    2.0882 O.co2     1 ATP        -0.8925
      8 O3B         0.1379    6.6250    4.3018 O.3       1 ATP        -0.8047
      9 PA         -2.5400    4.4095    2.1393 P.3       1 ATP         1.5908
     10 O1A        -2.3768    4.8335    0.6957 O.co2     1 ATP        -0.8932
     11 O2A        -3.8713    4.5576    2.8432 O.co2     1 ATP        -0.8932
     12 O3A        -1.3978    5.1558    3.0383 O.3       1 ATP        -0.8088
     13 O5'        -2.0401    2.8620    2.3128 O.3       1 ATP        -0.5646
     14 C5'        -0.8811    2.4285    1.6206 C.3       1 ATP         0.2204
     15 C4'        -0.1994    1.3333    2.4288 C.3       1 ATP         0.0965
     16 O4'        -1.1285    0.2356    2.5840 O.3       1 ATP        -0.3907
     17 C3'         1.0324    0.7610    1.7344 C.3       1 ATP         0.0763
     18 O3'         1.9175    0.2377    2.7247 O.3       1 ATP        -0.5884
     19 C2'         0.4468   -0.3802    0.9263 C.3       1 ATP         0.0784
     20 O2'         1.3993   -1.3703    0.5961 O.3       1 ATP        -0.6085
     21 C1'        -0.6159   -0.9100    1.8769 C.3       1 ATP         0.2186
     22 N9         -1.7127   -1.6108    1.2130 N.pl3     1 ATP        -0.1699
     23 C8         -2.8662   -1.0361    0.7388 C.ar      1 ATP         0.4438
     24 N7         -3.6774   -1.9166    0.1867 N.2       1 ATP        -0.6280
     25 C5         -3.0159   -3.1045    0.3122 C.ar      1 ATP         0.2109
     26 C6         -3.4377   -4.4169   -0.1199 C.ar      1 ATP         0.6180
     27 N6         -4.5720   -4.5691   -0.7080 N.2       1 ATP        -0.8319
     28 N1         -2.4600   -5.3463    0.2071 N.pl3     1 ATP        -0.8664
     29 C2         -1.2595   -5.0554    0.8515 C.ar      1 ATP         0.5952
     30 N3         -0.8555   -3.8803    1.2516 N.2       1 ATP        -0.5599
     31 C4         -1.7946   -2.9457    0.9448 C.ar      1 ATP         0.0076
     32 HOG3       -0.5421    7.8267    6.7177 H         1 ATP         0.4101
     33 H5'1       -1.1767    2.0502    0.6368 H         1 ATP         0.0364
     34 H5'2       -0.2080    3.2814    1.4876 H         1 ATP         0.0364
     35 H4'         0.0403    1.7078    3.4343 H         1 ATP         0.0945
     36 H3'         1.5907    1.4859    1.1353 H         1 ATP         0.0703
     37 HO3'        2.6839   -0.1150    2.2479 H         1 ATP         0.4099
     38 H2'        -0.0017    0.0018    0.0005 H         1 ATP         0.0676
     39 HO2'        2.0953   -0.9375    0.0709 H         1 ATP         0.4291
     40 H1'        -0.1998   -1.6319    2.6178 H         1 ATP         0.0950
     41 H8         -3.0558    0.0252    0.8256 H         1 ATP         0.1135
     42 HN62       -4.7047   -5.5592   -0.9421 H         1 ATP         0.3588
     43 H2         -0.6372   -5.9505    1.0077 H         1 ATP         0.0302
     44 H44        -2.6338   -6.3155   -0.0469 H         1 ATP         0.4215
@<TRIPOS>BOND
     1    1    2 2
     2    1    3 1
     3    1    4 1
     4    1    8 1
     5    4   32 1
     6    5    6 2
     7    5    7 1
     8    5    8 1
     9    5   12 1
    10    9   10 2
    11    9   11 1
    12    9   12 1
    13    9   13 1
    14   13   14 1
    15   14   15 1
    16   14   33 1
    17   14   34 1
    18   15   16 1
    19   15   17 1
    20   15   35 1
    21   16   21 1
    22   17   18 1
    23   17   19 1
    24   17   36 1
    25   18   37 1
    26   19   20 1
    27   19   21 1
    28   19   38 1
    29   20   39 1
    30   21   22 1
    31   21   40 1
    32   22   23 ar
    33   22   31 ar
    34   23   24 ar
    35   23   41 1
    36   24   25 ar
    37   25   26 ar
    38   25   31 ar
    39   26   27 2
    40   26   28 ar
    41   27   42 1
    42   28   29 ar
    43   28   44 1
    44   29   30 ar
    45   29   43 1
    46   30   31 ar
@<TRIPOS>SUBSTRUCTURE
     1 ATP         1 GROUP 0 A     ****
@<TRIPOS>MOLECULE
[[[3,4-dihydroxy-5-(6-imino-1~{H}-purin-9-yl)tetrahydrofuran-2-yl]methoxy-oxido-phosphoryl]oxy-oxido-phosphoryl] hydrogen phosphate
   44    46     1     0     0
SMALL
USER_CHARGES

@<TRIPOS>ATOM
      1 PG         -3.0948    4.4759    5.3910 P.3       1 ATP         1.5257
      2 O1G        -2.3618    3.2605    4.8687 O.co2     1 ATP        -0.8737
      3 O2G        -4.5604    4.6907    5.0850 O.co2     1 ATP        -0.8737
      4 O3G        -2.8864    4.5519    7.0087 O.3       1 ATP        -0.7971
      5 PB         -1.9924    6.4606    3.4965 P.3       1 ATP         1.6824
      6 O1B        -3.3189    6.6354    2.7913 O.co2     1 ATP        -0.8925
      7 O2B        -1.0243    7.6135    3.6414 O.co2     1 ATP        -0.8925
      8 O3B        -2.2649    5.8174    4.9722 O.3       1 ATP        -0.8047
      9 PA         -0.5790    5.0299    1.3261 P.3       1 ATP         1.5908
     10 O1A         0.5634    6.0092    1.1642 O.co2     1 ATP        -0.8932
     11 O2A        -1.7210    5.0027    0.3337 O.co2     1 ATP        -0.8932
     12 O3A        -1.2057    5.1972    2.8258 O.3       1 ATP        -0.8088
     13 O5'         0.0178    3.5131    1.4595 O.3       1 ATP        -0.5646
     14 C5'        -0.8811    2.4285    1.6206 C.3       1 ATP         0.2204
     15 C4'        -0.1994    1.3333    2.4288 C.3       1 ATP         0.0965
     16 O4'        -1.1285    0.2356    2.5840 O.3       1 ATP        -0.3907
     17 C3'         1.0324    0.7610    1.7344 C.3       1 ATP         0.0763
     18 O3'         1.9175    0.2377    2.7247 O.3       1 ATP        -0.5884
     19 C2'         0.4468   -0.3802    0.9263 C.3       1 ATP         0.0784
     20 O2'         1.3993   -1.3703    0.5961 O.3       1 ATP        -0.6085
     21 C1'        -0.6159   -0.9100    1.8769 C.3       1 ATP         0.2186
     22 N9         -1.7127   -1.6108    1.2130 N.pl3     1 ATP        -0.1699
     23 C8         -2.8662   -1.0361    0.7388 C.ar      1 ATP         0.4438
     24 N7         -3.6774   -1.9166    0.1867 N.2       1 ATP        -0.6280
     25 C5         -3.0159   -3.1045    0.3122 C.ar      1 ATP         0.2109
     26 C6         -3.4377   -4.4169   -0.1199 C.ar      1 ATP         0.6180
     27 N6         -4.5720   -4.5691   -0.7080 N.2       1 ATP        -0.8319
     28 N1         -2.4600   -5.3463    0.2071 N.pl3     1 ATP        -0.8664
     29 C2         -1.2595   -5.0554    0.8515 C.ar      1 ATP         0.5952
     30 N3         -0.8555   -3.8803    1.2516 N.2       1 ATP        -0.5599
     31 C4         -1.7946   -2.9457    0.9448 C.ar      1 ATP         0.0076
     32 HOG3       -3.3047    5.2914    7.4991 H         1 ATP         0.4101
     33 H5'1       -1.7771    2.7849    2.1387 H         1 ATP         0.0364
     34 H5'2       -1.1654    2.0541    0.6320 H         1 ATP         0.0364
     35 H4'         0.0403    1.7078    3.4343 H         1 ATP         0.0945
     36 H3'         1.5907    1.4859    1.1353 H         1 ATP         0.0703
     37 HO3'        2.1521    0.9800    3.3017 H         1 ATP         0.4099
     38 H2'        -0.0017    0.0018    0.0005 H         1 ATP         0.0676
     39 HO2'        0.9369   -2.0558    0.0825 H         1 ATP         0.4291
     40 H1'        -0.1998   -1.6319    2.6178 H         1 ATP         0.0950
     41 H8         -3.0558    0.0252    0.8256 H         1 ATP         0.1135
     42 HN62       -4.7047   -5.5592   -0.9421 H         1 ATP         0.3588
     43 H2         -0.6372   -5.9505    1.0077 H         1 ATP         0.0302
     44 H44        -2.6338   -6.3155   -0.0469 H         1 ATP         0.4215
@<TRIPOS>BOND
     1    1    2 2
     2    1    3 1
     3    1    4 1
     4    1    8 1
     5    4   32 1
     6    5    6 2
     7    5    7 1
     8    5    8 1
     9    5   12 1
    10    9   10 2
    11    9   11 1
    12    9   12 1
    13    9   13 1
    14   13   14 1
    15   14   15 1
    16   14   33 1
    17   14   34 1
    18   15   16 1
    19   15   17 1
    20   15   35 1
    21   16   21 1
    22   17   18 1
    23   17   19 1
    24   17   36 1
    25   18   37 1
    26   19   20 1
    27   19   21 1
    28   19   38 1
    29   20   39 1
    30   21   22 1
    31   21   40 1
    32   22   23 ar
    33   22   31 ar
    34   23   24 ar
    35   23   41 1
    36   24   25 ar
    37   25   26 ar
    38   25   31 ar
    39   26   27 2
    40   26   28 ar
    41   27   42 1
    42   28   29 ar
    43   28   44 1
    44   29   30 ar
    45   29   43 1
    46   30   31 ar
@<TRIPOS>SUBSTRUCTURE
     1 ATP         1 GROUP 0 A     ****
@<TRIPOS>MOLECULE
[[[3,4-dihydroxy-5-(6-imino-1~{H}-purin-9-yl)tetrahydrofuran-2-yl]methoxy-oxido-phosphoryl]oxy-oxido-phosphoryl] hydrogen phosphate
   44    46     1     0     0
SMALL
USER_CHARGES

@<TRIPOS>ATOM
      1 PG         -1.2121    2.2232   -3.3518 P.3       1 ATP         1.5257
      2 O1G        -2.4341    2.8002   -2.6726 O.co2     1 ATP        -0.8737
      3 O2G        -0.7736    0.8004   -3.0849 O.co2     1 ATP        -0.8737
      4 O3G        -1.3725    2.4224   -4.9644 O.3       1 ATP        -0.7971
      5 PB          0.8421    3.5905   -1.7226 P.3       1 ATP         1.6824
      6 O1B         1.2750    2.3049   -1.0539 O.co2     1 ATP        -0.8925
      7 O2B         1.8330    4.6966   -2.0092 O.co2     1 ATP        -0.8925
      8 O3B         0.0545    3.2223   -3.1046 O.3       1 ATP        -0.8047
      9 PA         -0.4665    4.8322    0.6228 P.3       1 ATP         1.5908
     10 O1A        -1.9050    5.1497    0.9698 O.co2     1 ATP        -0.8932
     11 O2A         0.6096    5.8892    0.7429 O.co2     1 ATP        -0.8932
     12 O3A        -0.4148    4.2162   -0.8897 O.3       1 ATP        -0.8088
     13 O5'         0.0178    3.5131    1.4595 O.3       1 ATP        -0.5646
     14 C5'        -0.8811    2.4285    1.6206 C.3       1 ATP         0.2204
     15 C4'        -0.1994    1.3333    2.4288 C.3       1 ATP         0.0965
     16 O4'        -1.1285    0.2356    2.5840 O.3       1 ATP        -0.3907
     17 C3'         1.0324    0.7610    1.7344 C.3       1 ATP         0.0763
     18 O3'         1.9175    0.2377    2.7247 O.3       1 ATP        -0.5884
     19 C2'         0.4468   -0.3802    0.9263 C.3       1 ATP         0.0784
     20 O2'         1.3993   -1.3703    0.5961 O.3       1 ATP        -0.6085
     21 C1'        -0.6159   -0.9100    1.8769 C.3       1 ATP         0.2186
     22 N9         -1.7127   -1.6108    1.2130 N.pl3     1 ATP        -0.1699
     23 C8         -2.8662   -1.0361    0.7388 C.ar      1 ATP         0.4438
     24 N7         -3.6774   -1.9166    0.1867 N.2       1 ATP        -0.6280
     25 C5         -3.0159   -3.1045    0.3122 C.ar      1 ATP         0.2109
     26 C6         -3.4377   -4.4169   -0.1199 C.ar      1 ATP         0.6180
     27 N6         -4.5720   -4.5691   -0.7080 N.2       1 ATP        -0.8319
     28 N1         -2.4600   -5.3463    0.2071 N.pl3     1 ATP        -0.8664
     29 C2         -1.2595   -5.0554    0.8515 C.ar      1 ATP         0.5952
     30 N3         -0.8555   -3.8803    1.2516 N.2       1 ATP        -0.5599
     31 C4         -1.7946   -2.9457    0.9448 C.ar      1 ATP         0.0076
     32 HOG3       -0.6548    2.0970   -5.5487 H         1 ATP         0.4101
     33 H5'1       -1.7771    2.7849    2.1387 H         1 ATP         0.0364
     34 H5'2       -1.1654    2.0541    0.6320 H         1 ATP         0.0364
     35 H4'         0.0403    1.7078    3.4343 H         1 ATP         0.0945
     36 H3'         1.5907    1.4859    1.1353 H         1 ATP         0.0703
     37 HO3'        2.6839   -0.1150    2.2479 H         1 ATP         0.4099
     38 H2'        -0.0017    0.0018    0.0005 H         1 ATP         0.0676
     39 HO2'        2.0953   -0.9375    0.0709 H         1 ATP         0.4291
     40 H1'        -0.1998   -1.6319    2.6178 H         1 ATP         0.0950
     41 H8         -3.0558    0.0252    0.8256 H         1 ATP         0.1135
     42 HN62       -4.7047   -5.5592   -0.9421 H         1 ATP         0.3588
     43 H2         -0.6372   -5.9505    1.0077 H         1 ATP         0.0302
     44 H44        -2.6338   -6.3155   -0.0469 H         1 ATP         0.4215
@<TRIPOS>BOND
     1    1    2 2
     2    1    3 1
     3    1    4 1
     4    1    8 1
     5    4   32 1
     6    5    6 2
     7    5    7 1
     8    5    8 1
     9    5   12 1
    10    9   10 2
    11    9   11 1
    12    9   12 1
    13    9   13 1
    14   13   14 1
    15   14   15 1
    16   14   33 1
    17   14   34 1
    18   15   16 1
    19   15   17 1
    20   15   35 1
    21   16   21 1
    22   17   18 1
    23   17   19 1
    24   17   36 1
    25   18   37 1
    26   19   20 1
    27   19   21 1
    28   19   38 1
    29   20   39 1
    30   21   22 1
    31   21   40 1
    32   22   23 ar
    33   22   31 ar
    34   23   24 ar
    35   23   41 1
    36   24   25 ar
    37   25   26 ar
    38   25   31 ar
    39   26   27 2
    40   26   28 ar
    41   27   42 1
    42   28   29 ar
    43   28   44 1
    44   29   30 ar
    45   29   43 1
    46   30   31 ar
@<TRIPOS>SUBSTRUCTURE
     1 ATP         1 GROUP 0 A     ****
@<TRIPOS>MOLECULE
[[[3,4-dihydroxy-5-(6-imino-1~{H}-purin-9-yl)tetrahydrofuran-2-yl]methoxy-oxido-phosphoryl]oxy-oxido-phosphoryl] hydrogen phosphate
   44    46     1     0     0
SMALL
USER_CHARGES

@<TRIPOS>ATOM
      1 PG         -1.2628    5.8855   -1.7278 P.3       1 ATP         1.5257
      2 O1G        -1.1593    4.4013   -1.4560 O.co2     1 ATP        -0.8737
      3 O2G        -0.0328    6.7657   -1.7151 O.co2     1 ATP        -0.8737
      4 O3G        -2.0389    6.0998   -3.1483 O.3       1 ATP        -0.7971
      5 PB         -2.3698    6.7018    0.8897 P.3       1 ATP         1.6824
      6 O1B        -1.0971    7.4141    1.2902 O.co2     1 ATP        -0.8925
      7 O2B        -3.7238    7.2063    1.3369 O.co2     1 ATP        -0.8925
      8 O3B        -2.3852    6.5306   -0.7339 O.3       1 ATP        -0.8047
      9 PA         -2.1561    4.4278    2.7707 P.3       1 ATP         1.5908
     10 O1A        -3.4710    4.6479    3.4867 O.co2     1 ATP        -0.8932
     11 O2A        -0.8475    4.8296    3.4155 O.co2     1 ATP        -0.8932
     12 O3A        -2.2377    5.1262    1.2959 O.3       1 ATP        -0.8088
     13 O5'        -2.0401    2.8620    2.3128 O.3       1 ATP        -0.5646
     14 C5'        -0.8811    2.4285    1.6206 C.3       1 ATP         0.2204
     15 C4'        -0.1994    1.3333    2.4288 C.3       1 ATP         0.0965
     16 O4'        -1.1285    0.2356    2.5840 O.3       1 ATP        -0.3907
     17 C3'         1.0324    0.7610    1.7344 C.3       1 ATP         0.0763
     18 O3'         1.9175    0.2377    2.7247 O.3       1 ATP        -0.5884
     19 C2'         0.4468   -0.3802    0.9263 C.3       1 ATP         0.0784
     20 O2'         1.3993   -1.3703    0.5961 O.3       1 ATP        -0.6085
     21 C1'        -0.6159   -0.9100    1.8769 C.3       1 ATP         0.2186
     22 N9         -1.7127   -1.6108    1.2130 N.pl3     1 ATP        -0.1699
     23 C8         -2.8662   -1.0361    0.7388 C.ar      1 ATP         0.4438
     24 N7         -3.6774   -1.9166    0.1867 N.2       1 ATP        -0.6280
     25 C5         -3.0159   -3.1045    0.3122 C.ar      1 ATP         0.2109
     26 C6         -3.4377   -4.4169   -0.1199 C.ar      1 ATP         0.6180
     27 N6         -4.5720   -4.5691   -0.7080 N.2       1 ATP        -0.8319
     28 N1         -2.4600   -5.3463    0.2071 N.pl3     1 ATP        -0.8664
     29 C2         -1.2595   -5.0554    0.8515 C.ar      1 ATP         0.5952
     30 N3         -0.8555   -3.8803    1.2516 N.2       1 ATP        -0.5599
     31 C4         -1.7946   -2.9457    0.9448 C.ar      1 ATP         0.0076
     32 HOG3       -2.1857    7.0160   -3.4666 H         1 ATP         0.4101
     33 H5'1       -1.1767    2.0502    0.6368 H         1 ATP         0.0364
     34 H5'2       -0.2080    3.2814    1.4876 H         1 ATP         0.0364
     35 H4'         0.0403    1.7078    3.4343 H         1 ATP         0.0945
     36 H3'         1.5907    1.4859    1.1353 H         1 ATP         0.0703
     37 HO3'        2.6839   -0.1150    2.2479 H         1 ATP         0.4099
     38 H2'        -0.0017    0.0018    0.0005 H         1 ATP         0.0676
     39 HO2'        2.0953   -0.9375    0.0709 H         1 ATP         0.4291
     40 H1'        -0.1998   -1.6319    2.6178 H         1 ATP         0.0950
     41 H8         -3.0558    0.0252    0.8256 H         1 ATP         0.1135
     42 HN62       -4.7047   -5.5592   -0.9421 H         1 ATP         0.3588
     43 H2         -0.6372   -5.9505    1.0077 H         1 ATP         0.0302
     44 H44        -2.6338   -6.3155   -0.0469 H         1 ATP         0.4215
@<TRIPOS>BOND
     1    1    2 2
     2    1    3 1
     3    1    4 1
     4    1    8 1
     5    4   32 1
     6    5    6 2
     7    5    7 1
     8    5    8 1
     9    5   12 1
    10    9   10 2
    11    9   11 1
    12    9   12 1
    13    9   13 1
    14   13   14 1
    15   14   15 1
    16   14   33 1
    17   14   34 1
    18   15   16 1
    19   15   17 1
    20   15   35 1
    21   16   21 1
    22   17   18 1
    23   17   19 1
    24   17   36 1
    25   18   37 1
    26   19   20 1
    27   19   21 1
    28   19   38 1
    29   20   39 1
    30   21   22 1
    31   21   40 1
    32   22   23 ar
    33   22   31 ar
    34   23   24 ar
    35   23   41 1
    36   24   25 ar
    37   25   26 ar
    38   25   31 ar
    39   26   27 2
    40   26   28 ar
    41   27   42 1
    42   28   29 ar
    43   28   44 1
    44   29   30 ar
    45   29   43 1
    46   30   31 ar
@<TRIPOS>SUBSTRUCTURE
     1 ATP         1 GROUP 0 A     ****
@<TRIPOS>MOLECULE
[[[3,4-dihydroxy-5-(6-imino-1~{H}-purin-9-yl)tetrahydrofuran-2-yl]methoxy-oxido-phosphoryl]oxy-oxido-phosphoryl] hydrogen phosphate
   44    46     1     0     0
SMALL
USER_CHARGES

@<TRIPOS>ATOM
      1 PG         -2.4275    3.6757   -2.5586 P.3       1 ATP         1.5257
      2 O1G        -3.0948    2.5318   -3.2891 O.co2     1 ATP        -0.8737
      3 O2G        -1.2418    3.4326   -1.6516 O.co2     1 ATP        -0.8737
      4 O3G        -2.0196    4.8200   -3.6496 O.3       1 ATP        -0.7971
      5 PB         -4.4707    4.0626   -0.4565 P.3       1 ATP         1.6824
      6 O1B        -5.2444    5.2654    0.0357 O.co2     1 ATP        -0.8925
      7 O2B        -5.1709    2.7649   -0.7929 O.co2     1 ATP        -0.8925
      8 O3B        -3.5607    4.5131   -1.7350 O.3       1 ATP        -0.8047
      9 PA         -3.3347    3.2338    2.1468 P.3       1 ATP         1.5908
     10 O1A        -3.9081    1.8334    2.1683 O.co2     1 ATP        -0.8932
     11 O2A        -3.9472    4.3334    2.9866 O.co2     1 ATP        -0.8932
     12 O3A        -3.2646    3.7490    0.5978 O.3       1 ATP        -0.8088
     13 O5'        -1.7336    3.1724    2.4750 O.3       1 ATP        -0.5646
     14 C5'        -0.8811    2.4285    1.6206 C.3       1 ATP         0.2204
     15 C4'        -0.1994    1.3333    2.4288 C.3       1 ATP         0.0965
     16 O4'        -1.1285    0.2356    2.5840 O.3       1 ATP        -0.3907
     17 C3'         1.0324    0.7610    1.7344 C.3       1 ATP         0.0763
     18 O3'         1.9175    0.2377    2.7247 O.3       1 ATP        -0.5884
     19 C2'         0.4468   -0.3802    0.9263 C.3       1 ATP         0.0784
     20 O2'         1.3993   -1.3703    0.5961 O.3       1 ATP        -0.6085
     21 C1'        -0.6159   -0.9100    1.8769 C.3       1 ATP         0.2186
     22 N9         -1.7127   -1.6108    1.2130 N.pl3     1 ATP        -0.1699
     23 C8         -2.5485   -1.0808    0.2609 C.ar      1 ATP         0.4438
     24 N7         -3.4476   -1.9486   -0.1593 N.2       1 ATP        -0.6280
     25 C5         -3.1762   -3.0816    0.5530 C.ar      1 ATP         0.2109
     26 C6         -3.8510   -4.3579    0.5006 C.ar      1 ATP         0.6180
     27 N6         -4.8468   -4.5293   -0.2961 N.2       1 ATP        -0.8319
     28 N1         -3.2499   -5.2342    1.3937 N.pl3     1 ATP        -0.8664
     29 C2         -2.1646   -4.9275    2.2116 C.ar      1 ATP         0.5952
     30 N3         -1.5382   -3.7840    2.2778 N.2       1 ATP        -0.5599
     31 C4         -2.1054   -2.9018    1.4120 C.ar      1 ATP         0.0076
     32 HOG3       -1.5737    5.6329   -3.3290 H         1 ATP         0.4101
     33 H5'1       -1.4800    1.9927    0.8146 H         1 ATP         0.0364
     34 H5'2       -0.1367    3.1040    1.1872 H         1 ATP         0.0364
     35 H4'         0.0403    1.7078    3.4343 H         1 ATP         0.0945
     36 H3'         1.5907    1.4859    1.1353 H         1 ATP         0.0703
     37 HO3'        2.6839   -0.1150    2.2479 H         1 ATP         0.4099
     38 H2'        -0.0017    0.0018    0.0005 H         1 ATP         0.0676
     39 HO2'        2.0953   -0.9375    0.0709 H         1 ATP         0.4291
     40 H1'        -0.1998   -1.6319    2.6178 H         1 ATP         0.0950
     41 H8         -2.4515   -0.0599   -0.0829 H         1 ATP         0.1135
     42 HN62       -5.1990   -5.4882   -0.2005 H         1 ATP         0.3588
     43 H2         -1.8555   -5.7783    2.8388 H         1 ATP         0.0302
     44 H44        -3.6312   -6.1750    1.4526 H         1 ATP         0.4215
@<TRIPOS>BOND
     1    1    2 2
     2    1    3 1
     3    1    4 1
     4    1    8 1
     5    4   32 1
     6    5    6 2
     7    5    7 1
     8    5    8 1
     9    5   12 1
    10    9   10 2
    11    9   11 1
    12    9   12 1
    13    9   13 1
    14   13   14 1
    15   14   15 1
    16   14   33 1
    17   14   34 1
    18   15   16 1
    19   15   17 1
    20   15   35 1
    21   16   21 1
    22   17   18 1
    23   17   19 1
    24   17   36 1
    25   18   37 1
    26   19   20 1
    27   19   21 1
    28   19   38 1
    29   20   39 1
    30   21   22 1
    31   21   40 1
    32   22   23 ar
    33   22   31 ar
    34   23   24 ar
    35   23   41 1
    36   24   25 ar
    37   25   26 ar
    38   25   31 ar
    39   26   27 2
    40   26   28 ar
    41   27   42 1
    42   28   29 ar
    43   28   44 1
    44   29   30 ar
    45   29   43 1
    46   30   31 ar
@<TRIPOS>SUBSTRUCTURE
     1 ATP         1 GROUP 0 A     ****
@<TRIPOS>MOLECULE
[[[3,4-dihydroxy-5-(6-imino-1~{H}-purin-9-yl)tetrahydrofuran-2-yl]methoxy-oxido-phosphoryl]oxy-oxido-phosphoryl] hydrogen phosphate
   44    46     1     0     0
SMALL
USER_CHARGES

@<TRIPOS>ATOM
      1 PG         -3.9248    6.0515   -2.6076 P.3       1 ATP         1.5257
      2 O1G        -4.2379    5.2736   -3.8663 O.co2     1 ATP        -0.8737
      3 O2G        -2.8623    7.1280   -2.6032 O.co2     1 ATP        -0.8737
      4 O3G        -5.3133    6.6913   -2.0344 O.3       1 ATP        -0.7971
      5 PB         -4.5113    3.7495   -0.8468 P.3       1 ATP         1.6824
      6 O1B        -5.7748    4.2940   -0.2186 O.co2     1 ATP        -0.8925
      7 O2B        -4.5659    2.6849   -1.9197 O.co2     1 ATP        -0.8925
      8 O3B        -3.6187    5.0013   -1.3964 O.3       1 ATP        -0.8047
      9 PA         -2.9646    4.0418    1.6587 P.3       1 ATP         1.5908
     10 O1A        -4.1353    4.3308    2.5732 O.co2     1 ATP        -0.8932
     11 O2A        -2.0512    5.1559    1.1958 O.co2     1 ATP        -0.8932
     12 O3A        -3.5115    3.2453    0.3410 O.3       1 ATP        -0.8088
     13 O5'        -2.0401    2.8620    2.3128 O.3       1 ATP        -0.5646
     14 C5'        -0.8811    2.4285    1.6206 C.3       1 ATP         0.2204
     15 C4'        -0.1994    1.3333    2.4288 C.3       1 ATP         0.0965
     16 O4'        -1.1285    0.2356    2.5840 O.3       1 ATP        -0.3907
     17 C3'         1.0324    0.7610    1.7344 C.3       1 ATP         0.0763
     18 O3'         1.9175    0.2377    2.7247 O.3       1 ATP        -0.5884
     19 C2'         0.4468   -0.3802    0.9263 C.3       1 ATP         0.0784
     20 O2'         1.3993   -1.3703    0.5961 O.3       1 ATP        -0.6085
     21 C1'        -0.6159   -0.9100    1.8769 C.3       1 ATP         0.2186
     22 N9         -1.7127   -1.6108    1.2130 N.pl3     1 ATP        -0.1699
     23 C8         -2.5485   -1.0808    0.2609 C.ar      1 ATP         0.4438
     24 N7         -3.4476   -1.9486   -0.1593 N.2       1 ATP        -0.6280
     25 C5         -3.1762   -3.0816    0.5530 C.ar      1 ATP         0.2109
     26 C6         -3.8510   -4.3579    0.5006 C.ar      1 ATP         0.6180
     27 N6         -4.8468   -4.5293   -0.2961 N.2       1 ATP        -0.8319
     28 N1         -3.2499   -5.2342    1.3937 N.pl3     1 ATP        -0.8664
     29 C2         -2.1646   -4.9275    2.2116 C.ar      1 ATP         0.5952
     30 N3         -1.5382   -3.7840    2.2778 N.2       1 ATP        -0.5599
     31 C4         -2.1054   -2.9018    1.4120 C.ar      1 ATP         0.0076
     32 HOG3       -5.2762    7.2289   -1.2147 H         1 ATP         0.4101
     33 H5'1       -1.1767    2.0502    0.6368 H         1 ATP         0.0364
     34 H5'2       -0.2080    3.2814    1.4876 H         1 ATP         0.0364
     35 H4'         0.0403    1.7078    3.4343 H         1 ATP         0.0945
     36 H3'         1.5907    1.4859    1.1353 H         1 ATP         0.0703
     37 HO3'        2.6839   -0.1150    2.2479 H         1 ATP         0.4099
     38 H2'        -0.0017    0.0018    0.0005 H         1 ATP         0.0676
     39 HO2'        0.9369   -2.0558    0.0825 H         1 ATP         0.4291
     40 H1'        -0.1998   -1.6319    2.6178 H         1 ATP         0.0950
     41 H8         -2.4515   -0.0599   -0.0829 H         1 ATP         0.1135
     42 HN62       -5.1990   -5.4882   -0.2005 H         1 ATP         0.3588
     43 H2         -1.8555   -5.7783    2.8388 H         1 ATP         0.0302
     44 H44        -3.6312   -6.1750    1.4526 H         1 ATP         0.4215
@<TRIPOS>BOND
     1    1    2 2
     2    1    3 1
     3    1    4 1
     4    1    8 1
     5    4   32 1
     6    5    6 2
     7    5    7 1
     8    5    8 1
     9    5   12 1
    10    9   10 2
    11    9   11 1
    12    9   12 1
    13    9   13 1
    14   13   14 1
    15   14   15 1
    16   14   33 1
    17   14   34 1
    18   15   16 1
    19   15   17 1
    20   15   35 1
    21   16   21 1
    22   17   18 1
    23   17   19 1
    24   17   36 1
    25   18   37 1
    26   19   20 1
    27   19   21 1
    28   19   38 1
    29   20   39 1
    30   21   22 1
    31   21   40 1
    32   22   23 ar
    33   22   31 ar
    34   23   24 ar
    35   23   41 1
    36   24   25 ar
    37   25   26 ar
    38   25   31 ar
    39   26   27 2
    40   26   28 ar
    41   27   42 1
    42   28   29 ar
    43   28   44 1
    44   29   30 ar
    45   29   43 1
    46   30   31 ar
@<TRIPOS>SUBSTRUCTURE
     1 ATP         1 GROUP 0 A     ****
@<TRIPOS>MOLECULE
[[[3,4-dihydroxy-5-(6-imino-1~{H}-purin-9-yl)tetrahydrofuran-2-yl]methoxy-oxido-phosphoryl]oxy-oxido-phosphoryl] hydrogen phosphate
   44    46     1     0     0
SMALL
USER_CHARGES

@<TRIPOS>ATOM
      1 PG         -6.4084    2.3383   -1.8250 P.3       1 ATP         1.5257
      2 O1G        -6.0058    2.9006   -3.1701 O.co2     1 ATP        -0.8737
      3 O2G        -7.7555    2.6627   -1.2187 O.co2     1 ATP        -0.8737
      4 O3G        -6.2369    0.7152   -1.8689 O.3       1 ATP        -0.7971
      5 PB         -4.7646    4.1198   -0.1315 P.3       1 ATP         1.6824
      6 O1B        -4.1320    4.9266   -1.2434 O.co2     1 ATP        -0.8925
      7 O2B        -5.8860    4.6887    0.7089 O.co2     1 ATP        -0.8925
      8 O3B        -5.2419    2.6801   -0.7358 O.3       1 ATP        -0.8047
      9 PA         -2.5926    4.4187    1.8556 P.3       1 ATP         1.5908
     10 O1A        -3.4218    5.0536    2.9508 O.co2     1 ATP        -0.8932
     11 O2A        -1.6631    5.2564    1.0048 O.co2     1 ATP        -0.8932
     12 O3A        -3.5855    3.5838    0.8621 O.3       1 ATP        -0.8088
     13 O5'        -1.7336    3.1724    2.4750 O.3       1 ATP        -0.5646
     14 C5'        -0.8811    2.4285    1.6206 C.3       1 ATP         0.2204
     15 C4'        -0.1994    1.3333    2.4288 C.3       1 ATP         0.0965
     16 O4'        -1.1285    0.2356    2.5840 O.3       1 ATP        -0.3907
     17 C3'         1.0324    0.7610    1.7344 C.3       1 ATP         0.0763
     18 O3'         1.9175    0.2377    2.7247 O.3       1 ATP        -0.5884
     19 C2'         0.4468   -0.3802    0.9263 C.3       1 ATP         0.0784
     20 O2'         1.3993   -1.3703    0.5961 O.3       1 ATP        -0.6085
     21 C1'        -0.6159   -0.9100    1.8769 C.3       1 ATP         0.2186
     22 N9         -1.7127   -1.6108    1.2130 N.pl3     1 ATP        -0.1699
     23 C8         -1.5982   -2.7455    0.4481 C.ar      1 ATP         0.4438
     24 N7         -2.7593   -3.1533   -0.0249 N.2       1 ATP        -0.6280
     25 C5         -3.6547   -2.2420    0.4573 C.ar      1 ATP         0.2109
     26 C6         -5.0842   -2.1942    0.2543 C.ar      1 ATP         0.6180
     27 N6         -5.6648   -3.0919   -0.4618 N.2       1 ATP        -0.8319
     28 N1         -5.6087   -1.0978    0.9248 N.pl3     1 ATP        -0.8664
     29 C2         -4.8689   -0.1873    1.6760 C.ar      1 ATP         0.5952
     30 N3         -3.5787   -0.2081    1.8745 N.2       1 ATP        -0.5599
     31 C4         -3.0344   -1.2737    1.2284 C.ar      1 ATP         0.0076
     32 HOG3       -6.4604    0.2002   -1.0646 H         1 ATP         0.4101
     33 H5'1       -1.4800    1.9927    0.8146 H         1 ATP         0.0364
     34 H5'2       -0.1367    3.1040    1.1872 H         1 ATP         0.0364
     35 H4'         0.0403    1.7078    3.4343 H         1 ATP         0.0945
     36 H3'         1.5907    1.4859    1.1353 H         1 ATP         0.0703
     37 HO3'        2.6839   -0.1150    2.2479 H         1 ATP         0.4099
     38 H2'        -0.0017    0.0018    0.0005 H         1 ATP         0.0676
     39 HO2'        2.0953   -0.9375    0.0709 H         1 ATP         0.4291
     40 H1'        -0.1998   -1.6319    2.6178 H         1 ATP         0.0950
     41 H8         -0.6448   -3.2254    0.2735 H         1 ATP         0.1135
     42 HN62       -6.6723   -2.9015   -0.4966 H         1 ATP         0.3588
     43 H2         -5.4961    0.6026    2.1183 H         1 ATP         0.0302
     44 H44        -6.6130   -0.9504    0.8642 H         1 ATP         0.4215
@<TRIPOS>BOND
     1    1    2 2
     2    1    3 1
     3    1    4 1
     4    1    8 1
     5    4   32 1
     6    5    6 2
     7    5    7 1
     8    5    8 1
     9    5   12 1
    10    9   10 2
    11    9   11 1
    12    9   12 1
    13    9   13 1
    14   13   14 1
    15   14   15 1
    16   14   33 1
    17   14   34 1
    18   15   16 1
    19   15   17 1
    20   15   35 1
    21   16   21 1
    22   17   18 1
    23   17   19 1
    24   17   36 1
    25   18   37 1
    26   19   20 1
    27   19   21 1
    28   19   38 1
    29   20   39 1
    30   21   22 1
    31   21   40 1
    32   22   23 ar
    33   22   31 ar
    34   23   24 ar
    35   23   41 1
    36   24   25 ar
    37   25   26 ar
    38   25   31 ar
    39   26   27 2
    40   26   28 ar
    41   27   42 1
    42   28   29 ar
    43   28   44 1
    44   29   30 ar
    45   29   43 1
    46   30   31 ar
@<TRIPOS>SUBSTRUCTURE
     1 ATP         1 GROUP 0 A     ****
@<TRIPOS>MOLECULE
[[[3,4-dihydroxy-5-(6-imino-1~{H}-purin-9-yl)tetrahydrofuran-2-yl]methoxy-oxido-phosphoryl]oxy-oxido-phosphoryl] hydrogen phosphate
   44    46     1     0     0
SMALL
USER_CHARGES

@<TRIPOS>ATOM
      1 PG         -1.3795    4.1356   -4.5068 P.3       1 ATP         1.5257
      2 O1G        -1.2194    2.8924   -5.3530 O.co2     1 ATP        -0.8737
      3 O2G        -0.8881    5.4790   -4.9982 O.co2     1 ATP        -0.8737
      4 O3G        -2.9513    4.2797   -4.0889 O.3       1 ATP        -0.7971
      5 PB          0.7922    3.5943   -2.5744 P.3       1 ATP         1.6824
      6 O1B         1.2506    2.2738   -3.1521 O.co2     1 ATP        -0.8925
      7 O2B         1.5823    4.8642   -2.7993 O.co2     1 ATP        -0.8925
      8 O3B        -0.7553    3.8538   -3.0253 O.3       1 ATP        -0.8047
      9 PA         -0.0889    4.4444    0.1193 P.3       1 ATP         1.5908
     10 O1A        -1.5455    4.6750   -0.2201 O.co2     1 ATP        -0.8932
     11 O2A         0.8625    5.6104    0.2774 O.co2     1 ATP        -0.8932
     12 O3A         0.5468    3.4071   -0.9714 O.3       1 ATP        -0.8088
     13 O5'         0.0178    3.5131    1.4595 O.3       1 ATP        -0.5646
     14 C5'        -0.8811    2.4285    1.6206 C.3       1 ATP         0.2204
     15 C4'        -0.1994    1.3333    2.4288 C.3       1 ATP         0.0965
     16 O4'        -1.1285    0.2356    2.5840 O.3       1 ATP        -0.3907
     17 C3'         1.0324    0.7610    1.7344 C.3       1 ATP         0.0763
     18 O3'         1.9175    0.2377    2.7247 O.3       1 ATP        -0.5884
     19 C2'         0.4468   -0.3802    0.9263 C.3       1 ATP         0.0784
     20 O2'         1.3993   -1.3703    0.5961 O.3       1 ATP        -0.6085
     21 C1'        -0.6159   -0.9100    1.8769 C.3       1 ATP         0.2186
     22 N9         -1.7127   -1.6108    1.2130 N.pl3     1 ATP        -0.1699
     23 C8         -1.7690   -2.9583    0.9549 C.ar      1 ATP         0.4438
     24 N7         -2.8827   -3.3076    0.3418 N.2       1 ATP        -0.6280
     25 C5         -3.5683   -2.1351    0.2017 C.ar      1 ATP         0.2109
     26 C6         -4.8617   -1.9185   -0.4044 C.ar      1 ATP         0.6180
     27 N6         -5.5166   -2.9094   -0.8993 N.2       1 ATP        -0.8319
     28 N1         -5.1837   -0.5701   -0.3344 N.pl3     1 ATP        -0.8664
     29 C2         -4.3821    0.4180    0.2330 C.ar      1 ATP         0.5952
     30 N3         -3.2117    0.2488    0.7860 N.2       1 ATP        -0.5599
     31 C4         -2.8672   -1.0657    0.7327 C.ar      1 ATP         0.0076
     32 HOG3       -3.2188    5.0434   -3.5343 H         1 ATP         0.4101
     33 H5'1       -1.7771    2.7849    2.1387 H         1 ATP         0.0364
     34 H5'2       -1.1654    2.0541    0.6320 H         1 ATP         0.0364
     35 H4'         0.0403    1.7078    3.4343 H         1 ATP         0.0945
     36 H3'         1.5907    1.4859    1.1353 H         1 ATP         0.0703
     37 HO3'        2.6839   -0.1150    2.2479 H         1 ATP         0.4099
     38 H2'        -0.0017    0.0018    0.0005 H         1 ATP         0.0676
     39 HO2'        2.0953   -0.9375    0.0709 H         1 ATP         0.4291
     40 H1'        -0.1998   -1.6319    2.6178 H         1 ATP         0.0950
     41 H8         -0.9697   -3.6300    1.2371 H         1 ATP         0.1135
     42 HN62       -6.4060   -2.5723   -1.2840 H         1 ATP         0.3588
     43 H2         -4.8409    1.4176    0.1757 H         1 ATP         0.0302
     44 H44        -6.0768   -0.2826   -0.7263 H         1 ATP         0.4215
@<TRIPOS>BOND
     1    1    2 2
     2    1    3 1
     3    1    4 1
     4    1    8 1
     5    4   32 1
     6    5    6 2
     7    5    7 1
     8    5    8 1
     9    5   12 1
    10    9   10 2
    11    9   11 1
    12    9   12 1
    13    9   13 1
    14   13   14 1
    15   14   15 1
    16   14   33 1
    17   14   34 1
    18   15   16 1
    19   15   17 1
    20   15   35 1
    21   16   21 1
    22   17   18 1
    23   17   19 1
    24   17   36 1
    25   18   37 1
    26   19   20 1
    27   19   21 1
    28   19   38 1
    29   20   39 1
    30   21   22 1
    31   21   40 1
    32   22   23 ar
    33   22   31 ar
    34   23   24 ar
    35   23   41 1
    36   24   25 ar
    37   25   26 ar
    38   25   31 ar
    39   26   27 2
    40   26   28 ar
    41   27   42 1
    42   28   29 ar
    43   28   44 1
    44   29   30 ar
    45   29   43 1
    46   30   31 ar
@<TRIPOS>SUBSTRUCTURE
     1 ATP         1 GROUP 0 A     ****
@<TRIPOS>MOLECULE
[[[3,4-dihydroxy-5-(6-imino-1~{H}-purin-9-yl)tetrahydrofuran-2-yl]methoxy-oxido-phosphoryl]oxy-oxido-phosphoryl] hydrogen phosphate
   44    46     1     0     0
SMALL
USER_CHARGES

@<TRIPOS>ATOM
      1 PG         -4.6330    8.1053    0.1955 P.3       1 ATP         1.5257
      2 O1G        -5.9617    7.6815   -0.3896 O.co2     1 ATP        -0.8737
      3 O2G        -3.7555    9.1108   -0.5164 O.co2     1 ATP        -0.8737
      4 O3G        -4.8809    8.6239    1.7237 O.3       1 ATP        -0.7971
      5 PB         -3.0946    5.6738   -0.4862 P.3       1 ATP         1.6824
      6 O1B        -4.2123    4.9121   -1.1631 O.co2     1 ATP        -0.8925
      7 O2B        -2.0045    6.3451   -1.2914 O.co2     1 ATP        -0.8925
      8 O3B        -3.7496    6.7736    0.5272 O.3       1 ATP        -0.8047
      9 PA         -3.0798    3.8627    1.8536 P.3       1 ATP         1.5908
     10 O1A        -3.9736    2.7897    1.2703 O.co2     1 ATP        -0.8932
     11 O2A        -3.6162    4.8491    2.8679 O.co2     1 ATP        -0.8932
     12 O3A        -2.4007    4.7039    0.6285 O.3       1 ATP        -0.8088
     13 O5'        -1.7336    3.1724    2.4750 O.3       1 ATP        -0.5646
     14 C5'        -0.8811    2.4285    1.6206 C.3       1 ATP         0.2204
     15 C4'        -0.1994    1.3333    2.4288 C.3       1 ATP         0.0965
     16 O4'        -1.1285    0.2356    2.5840 O.3       1 ATP        -0.3907
     17 C3'         1.0324    0.7610    1.7344 C.3       1 ATP         0.0763
     18 O3'         1.9175    0.2377    2.7247 O.3       1 ATP        -0.5884
     19 C2'         0.4468   -0.3802    0.9263 C.3       1 ATP         0.0784
     20 O2'         1.3993   -1.3703    0.5961 O.3       1 ATP        -0.6085
     21 C1'        -0.6159   -0.9100    1.8769 C.3       1 ATP         0.2186
     22 N9         -1.7127   -1.6108    1.2130 N.pl3     1 ATP        -0.1699
     23 C8         -2.8662   -1.0361    0.7388 C.ar      1 ATP         0.4438
     24 N7         -3.6774   -1.9166    0.1867 N.2       1 ATP        -0.6280
     25 C5         -3.0159   -3.1045    0.3122 C.ar      1 ATP         0.2109
     26 C6         -3.4377   -4.4169   -0.1199 C.ar      1 ATP         0.6180
     27 N6         -4.5720   -4.5691   -0.7080 N.2       1 ATP        -0.8319
     28 N1         -2.4600   -5.3463    0.2071 N.pl3     1 ATP        -0.8664
     29 C2         -1.2595   -5.0554    0.8515 C.ar      1 ATP         0.5952
     30 N3         -0.8555   -3.8803    1.2516 N.2       1 ATP        -0.5599
     31 C4         -1.7946   -2.9457    0.9448 C.ar      1 ATP         0.0076
     32 HOG3       -4.1086    8.9353    2.2422 H         1 ATP         0.4101
     33 H5'1       -1.4800    1.9927    0.8146 H         1 ATP         0.0364
     34 H5'2       -0.1367    3.1040    1.1872 H         1 ATP         0.0364
     35 H4'         0.0403    1.7078    3.4343 H         1 ATP         0.0945
     36 H3'         1.5907    1.4859    1.1353 H         1 ATP         0.0703
     37 HO3'        2.6839   -0.1150    2.2479 H         1 ATP         0.4099
     38 H2'        -0.0017    0.0018    0.0005 H         1 ATP         0.0676
     39 HO2'        2.0953   -0.9375    0.0709 H         1 ATP         0.4291
     40 H1'        -0.1998   -1.6319    2.6178 H         1 ATP         0.0950
     41 H8         -3.0558    0.0252    0.8256 H         1 ATP         0.1135
     42 HN62       -4.7047   -5.5592   -0.9421 H         1 ATP         0.3588
     43 H2         -0.6372   -5.9505    1.0077 H         1 ATP         0.0302
     44 H44        -2.6338   -6.3155   -0.0469 H         1 ATP         0.4215
@<TRIPOS>BOND
     1    1    2 2
     2    1    3 1
     3    1    4 1
     4    1    8 1
     5    4   32 1
     6    5    6 2
     7    5    7 1
     8    5    8 1
     9    5   12 1
    10    9   10 2
    11    9   11 1
    12    9   12 1
    13    9   13 1
    14   13   14 1
    15   14   15 1
    16   14   33 1
    17   14   34 1
    18   15   16 1
    19   15   17 1
    20   15   35 1
    21   16   21 1
    22   17   18 1
    23   17   19 1
    24   17   36 1
    25   18   37 1
    26   19   20 1
    27   19   21 1
    28   19   38 1
    29   20   39 1
    30   21   22 1
    31   21   40 1
    32   22   23 ar
    33   22   31 ar
    34   23   24 ar
    35   23   41 1
    36   24   25 ar
    37   25   26 ar
    38   25   31 ar
    39   26   27 2
    40   26   28 ar
    41   27   42 1
    42   28   29 ar
    43   28   44 1
    44   29   30 ar
    45   29   43 1
    46   30   31 ar
@<TRIPOS>SUBSTRUCTURE
     1 ATP         1 GROUP 0 A     ****
@<TRIPOS>MOLECULE
[[[3,4-dihydroxy-5-(6-imino-1~{H}-purin-9-yl)tetrahydrofuran-2-yl]methoxy-oxido-phosphoryl]oxy-oxido-phosphoryl] hydrogen phosphate
   44    46     1     0     0
SMALL
USER_CHARGES

@<TRIPOS>ATOM
      1 PG         -0.7591    8.7989    1.2891 P.3       1 ATP         1.5257
      2 O1G        -0.8280    8.7929   -0.2218 O.co2     1 ATP        -0.8737
      3 O2G         0.4320    9.3891    2.0105 O.co2     1 ATP        -0.8737
      4 O3G        -2.1153    9.5006    1.8673 O.3       1 ATP        -0.7971
      5 PB         -1.1961    6.7418    3.3678 P.3       1 ATP         1.6824
      6 O1B         0.1117    6.9212    4.1059 O.co2     1 ATP        -0.8925
      7 O2B        -2.4912    7.2904    3.9240 O.co2     1 ATP        -0.8925
      8 O3B        -1.0124    7.2830    1.8384 O.3       1 ATP        -0.8047
      9 PA         -2.5400    4.4095    2.1393 P.3       1 ATP         1.5908
     10 O1A        -2.3768    4.8335    0.6957 O.co2     1 ATP        -0.8932
     11 O2A        -3.8713    4.5576    2.8432 O.co2     1 ATP        -0.8932
     12 O3A        -1.3978    5.1558    3.0383 O.3       1 ATP        -0.8088
     13 O5'        -2.0401    2.8620    2.3128 O.3       1 ATP        -0.5646
     14 C5'        -0.8811    2.4285    1.6206 C.3       1 ATP         0.2204
     15 C4'        -0.1994    1.3333    2.4288 C.3       1 ATP         0.0965
     16 O4'        -1.1285    0.2356    2.5840 O.3       1 ATP        -0.3907
     17 C3'         1.0324    0.7610    1.7344 C.3       1 ATP         0.0763
     18 O3'         1.9175    0.2377    2.7247 O.3       1 ATP        -0.5884
     19 C2'         0.4468   -0.3802    0.9263 C.3       1 ATP         0.0784
     20 O2'         1.3993   -1.3703    0.5961 O.3       1 ATP        -0.6085
     21 C1'        -0.6159   -0.9100    1.8769 C.3       1 ATP         0.2186
     22 N9         -1.7127   -1.6108    1.2130 N.pl3     1 ATP        -0.1699
     23 C8         -2.8662   -1.0361    0.7388 C.ar      1 ATP         0.4438
     24 N7         -3.6774   -1.9166    0.1867 N.2       1 ATP        -0.6280
     25 C5         -3.0159   -3.1045    0.3122 C.ar      1 ATP         0.2109
     26 C6         -3.4377   -4.4169   -0.1199 C.ar      1 ATP         0.6180
     27 N6         -4.5720   -4.5691   -0.7080 N.2       1 ATP        -0.8319
     28 N1         -2.4600   -5.3463    0.2071 N.pl3     1 ATP        -0.8664
     29 C2         -1.2595   -5.0554    0.8515 C.ar      1 ATP         0.5952
     30 N3         -0.8555   -3.8803    1.2516 N.2       1 ATP        -0.5599
     31 C4         -1.7946   -2.9457    0.9448 C.ar      1 ATP         0.0076
     32 HOG3       -2.2216    9.5807    2.8392 H         1 ATP         0.4101
     33 H5'1       -1.1767    2.0502    0.6368 H         1 ATP         0.0364
     34 H5'2       -0.2080    3.2814    1.4876 H         1 ATP         0.0364
     35 H4'         0.0403    1.7078    3.4343 H         1 ATP         0.0945
     36 H3'         1.5907    1.4859    1.1353 H         1 ATP         0.0703
     37 HO3'        2.6839   -0.1150    2.2479 H         1 ATP         0.4099
     38 H2'        -0.0017    0.0018    0.0005 H         1 ATP         0.0676
     39 HO2'        2.0953   -0.9375    0.0709 H         1 ATP         0.4291
     40 H1'        -0.1998   -1.6319    2.6178 H         1 ATP         0.0950
     41 H8         -3.0558    0.0252    0.8256 H         1 ATP         0.1135
     42 HN62       -4.7047   -5.5592   -0.9421 H         1 ATP         0.3588
     43 H2         -0.6372   -5.9505    1.0077 H         1 ATP         0.0302
     44 H44        -2.6338   -6.3155   -0.0469 H         1 ATP         0.4215
@<TRIPOS>BOND
     1    1    2 2
     2    1    3 1
     3    1    4 1
     4    1    8 1
     5    4   32 1
     6    5    6 2
     7    5    7 1
     8    5    8 1
     9    5   12 1
    10    9   10 2
    11    9   11 1
    12    9   12 1
    13    9   13 1
    14   13   14 1
    15   14   15 1
    16   14   33 1
    17   14   34 1
    18   15   16 1
    19   15   17 1
    20   15   35 1
    21   16   21 1
    22   17   18 1
    23   17   19 1
    24   17   36 1
    25   18   37 1
    26   19   20 1
    27   19   21 1
    28   19   38 1
    29   20   39 1
    30   21   22 1
    31   21   40 1
    32   22   23 ar
    33   22   31 ar
    34   23   24 ar
    35   23   41 1
    36   24   25 ar
    37   25   26 ar
    38   25   31 ar
    39   26   27 2
    40   26   28 ar
    41   27   42 1
    42   28   29 ar
    43   28   44 1
    44   29   30 ar
    45   29   43 1
    46   30   31 ar
@<TRIPOS>SUBSTRUCTURE
     1 ATP         1 GROUP 0 A     ****
@<TRIPOS>MOLECULE
[[[3,4-dihydroxy-5-(6-imino-1~{H}-purin-9-yl)tetrahydrofuran-2-yl]methoxy-oxido-phosphoryl]oxy-oxido-phosphoryl] hydrogen phosphate
   44    46     1     0     0
SMALL
USER_CHARGES

@<TRIPOS>ATOM
      1 PG         -7.8693    3.4131    1.9943 P.3       1 ATP         1.5257
      2 O1G        -8.3082    4.0752    0.7073 O.co2     1 ATP        -0.8737
      3 O2G        -8.2006    4.0269    3.3364 O.co2     1 ATP        -0.8737
      4 O3G        -8.3944    1.8671    1.9875 O.3       1 ATP        -0.7971
      5 PB         -5.3881    2.3486    0.7885 P.3       1 ATP         1.6824
      6 O1B        -5.7700    0.8852    0.8020 O.co2     1 ATP        -0.8925
      7 O2B        -5.4239    3.1558   -0.4901 O.co2     1 ATP        -0.8925
      8 O3B        -6.2637    3.1285    1.9246 O.3       1 ATP        -0.8047
      9 PA         -3.0798    3.8627    1.8536 P.3       1 ATP         1.5908
     10 O1A        -3.8220    4.5968    2.9492 O.co2     1 ATP        -0.8932
     11 O2A        -2.6995    4.5681    0.5701 O.co2     1 ATP        -0.8932
     12 O3A        -3.9133    2.5109    1.4692 O.3       1 ATP        -0.8088
     13 O5'        -1.7336    3.1724    2.4750 O.3       1 ATP        -0.5646
     14 C5'        -0.8811    2.4285    1.6206 C.3       1 ATP         0.2204
     15 C4'        -0.1994    1.3333    2.4288 C.3       1 ATP         0.0965
     16 O4'        -1.1285    0.2356    2.5840 O.3       1 ATP        -0.3907
     17 C3'         1.0324    0.7610    1.7344 C.3       1 ATP         0.0763
     18 O3'         1.9175    0.2377    2.7247 O.3       1 ATP        -0.5884
     19 C2'         0.4468   -0.3802    0.9263 C.3       1 ATP         0.0784
     20 O2'         1.3993   -1.3703    0.5961 O.3       1 ATP        -0.6085
     21 C1'        -0.6159   -0.9100    1.8769 C.3       1 ATP         0.2186
     22 N9         -1.7127   -1.6108    1.2130 N.pl3     1 ATP        -0.1699
     23 C8         -2.5485   -1.0808    0.2609 C.ar      1 ATP         0.4438
     24 N7         -3.4476   -1.9486   -0.1593 N.2       1 ATP        -0.6280
     25 C5         -3.1762   -3.0816    0.5530 C.ar      1 ATP         0.2109
     26 C6         -3.8510   -4.3579    0.5006 C.ar      1 ATP         0.6180
     27 N6         -4.8468   -4.5293   -0.2961 N.2       1 ATP        -0.8319
     28 N1         -3.2499   -5.2342    1.3937 N.pl3     1 ATP        -0.8664
     29 C2         -2.1646   -4.9275    2.2116 C.ar      1 ATP         0.5952
     30 N3         -1.5382   -3.7840    2.2778 N.2       1 ATP        -0.5599
     31 C4         -2.1054   -2.9018    1.4120 C.ar      1 ATP         0.0076
     32 HOG3       -8.1876    1.3003    2.7610 H         1 ATP         0.4101
     33 H5'1       -1.4800    1.9927    0.8146 H         1 ATP         0.0364
     34 H5'2       -0.1367    3.1040    1.1872 H         1 ATP         0.0364
     35 H4'         0.0403    1.7078    3.4343 H         1 ATP         0.0945
     36 H3'         1.5907    1.4859    1.1353 H         1 ATP         0.0703
     37 HO3'        2.1521    0.9800    3.3017 H         1 ATP         0.4099
     38 H2'        -0.0017    0.0018    0.0005 H         1 ATP         0.0676
     39 HO2'        2.0953   -0.9375    0.0709 H         1 ATP         0.4291
     40 H1'        -0.1998   -1.6319    2.6178 H         1 ATP         0.0950
     41 H8         -2.4515   -0.0599   -0.0829 H         1 ATP         0.1135
     42 HN62       -5.1990   -5.4882   -0.2005 H         1 ATP         0.3588
     43 H2         -1.8555   -5.7783    2.8388 H         1 ATP         0.0302
     44 H44        -3.6312   -6.1750    1.4526 H         1 ATP         0.4215
@<TRIPOS>BOND
     1    1    2 2
     2    1    3 1
     3    1    4 1
     4    1    8 1
     5    4   32 1
     6    5    6 2
     7    5    7 1
     8    5    8 1
     9    5   12 1
    10    9   10 2
    11    9   11 1
    12    9   12 1
    13    9   13 1
    14   13   14 1
    15   14   15 1
    16   14   33 1
    17   14   34 1
    18   15   16 1
    19   15   17 1
    20   15   35 1
    21   16   21 1
    22   17   18 1
    23   17   19 1
    24   17   36 1
    25   18   37 1
    26   19   20 1
    27   19   21 1
    28   19   38 1
    29   20   39 1
    30   21   22 1
    31   21   40 1
    32   22   23 ar
    33   22   31 ar
    34   23   24 ar
    35   23   41 1
    36   24   25 ar
    37   25   26 ar
    38   25   31 ar
    39   26   27 2
    40   26   28 ar
    41   27   42 1
    42   28   29 ar
    43   28   44 1
    44   29   30 ar
    45   29   43 1
    46   30   31 ar
@<TRIPOS>SUBSTRUCTURE
     1 ATP         1 GROUP 0 A     ****
@<TRIPOS>MOLECULE
[[[3,4-dihydroxy-5-(6-imino-1~{H}-purin-9-yl)tetrahydrofuran-2-yl]methoxy-oxido-phosphoryl]oxy-oxido-phosphoryl] hydrogen phosphate
   44    46     1     0     0
SMALL
USER_CHARGES

@<TRIPOS>ATOM
      1 PG         -5.5241   -1.9806    2.8178 P.3       1 ATP         1.5257
      2 O1G        -4.6390   -3.0606    3.3990 O.co2     1 ATP        -0.8737
      3 O2G        -6.2784   -2.2054    1.5262 O.co2     1 ATP        -0.8737
      4 O3G        -6.5873   -1.5090    3.9638 O.3       1 ATP        -0.7971
      5 PB         -5.1531    0.9035    2.2813 P.3       1 ATP         1.6824
      6 O1B        -5.5746    0.8934    0.8289 O.co2     1 ATP        -0.8925
      7 O2B        -6.0735    1.4284    3.3605 O.co2     1 ATP        -0.8925
      8 O3B        -4.6647   -0.5986    2.6949 O.3       1 ATP        -0.8047
      9 PA         -3.3347    3.2338    2.1468 P.3       1 ATP         1.5908
     10 O1A        -4.0314    4.0802    3.1901 O.co2     1 ATP        -0.8932
     11 O2A        -3.5037    3.5289    0.6724 O.co2     1 ATP        -0.8932
     12 O3A        -3.7146    1.6655    2.4035 O.3       1 ATP        -0.8088
     13 O5'        -1.7336    3.1724    2.4750 O.3       1 ATP        -0.5646
     14 C5'        -0.8811    2.4285    1.6206 C.3       1 ATP         0.2204
     15 C4'        -0.1994    1.3333    2.4288 C.3       1 ATP         0.0965
     16 O4'        -1.1285    0.2356    2.5840 O.3       1 ATP        -0.3907
     17 C3'         1.0324    0.7610    1.7344 C.3       1 ATP         0.0763
     18 O3'         1.9175    0.2377    2.7247 O.3       1 ATP        -0.5884
     19 C2'         0.4468   -0.3802    0.9263 C.3       1 ATP         0.0784
     20 O2'         1.3993   -1.3703    0.5961 O.3       1 ATP        -0.6085
     21 C1'        -0.6159   -0.9100    1.8769 C.3       1 ATP         0.2186
     22 N9         -1.7127   -1.6108    1.2130 N.pl3     1 ATP        -0.1699
     23 C8         -2.0868   -2.9137    1.4327 C.ar      1 ATP         0.4438
     24 N7         -3.1125   -3.2756    0.6878 N.2       1 ATP        -0.6280
     25 C5         -3.4079   -2.1580   -0.0391 C.ar      1 ATP         0.2109
     26 C6         -4.4483   -1.9775   -1.0249 C.ar      1 ATP         0.6180
     27 N6         -5.2418   -2.9492   -1.3113 N.2       1 ATP        -0.8319
     28 N1         -4.3937   -0.6823   -1.5211 N.pl3     1 ATP        -0.8664
     29 C2         -3.4770    0.2901   -1.1271 C.ar      1 ATP         0.5952
     30 N3         -2.5289    0.1525   -0.2402 N.2       1 ATP        -0.5599
     31 C4         -2.5564   -1.1096    0.2655 C.ar      1 ATP         0.0076
     32 HOG3       -7.2356   -0.8079    3.7390 H         1 ATP         0.4101
     33 H5'1       -1.4800    1.9927    0.8146 H         1 ATP         0.0364
     34 H5'2       -0.1367    3.1040    1.1872 H         1 ATP         0.0364
     35 H4'         0.0403    1.7078    3.4343 H         1 ATP         0.0945
     36 H3'         1.5907    1.4859    1.1353 H         1 ATP         0.0703
     37 HO3'        2.6839   -0.1150    2.2479 H         1 ATP         0.4099
     38 H2'        -0.0017    0.0018    0.0005 H         1 ATP         0.0676
     39 HO2'        2.0953   -0.9375    0.0709 H         1 ATP         0.4291
     40 H1'        -0.1998   -1.6319    2.6178 H         1 ATP         0.0950
     41 H8         -1.5740   -3.5449    2.1457 H         1 ATP         0.1135
     42 HN62       -5.9117   -2.6433   -2.0256 H         1 ATP         0.3588
     43 H2         -3.6225    1.2454   -1.6553 H         1 ATP         0.0302
     44 H44        -5.0794   -0.4231   -2.2258 H         1 ATP         0.4215
@<TRIPOS>BOND
     1    1    2 2
     2    1    3 1
     3    1    4 1
     4    1    8 1
     5    4   32 1
     6    5    6 2
     7    5    7 1
     8    5    8 1
     9    5   12 1
    10    9   10 2
    11    9   11 1
    12    9   12 1
    13    9   13 1
    14   13   14 1
    15   14   15 1
    16   14   33 1
    17   14   34 1
    18   15   16 1
    19   15   17 1
    20   15   35 1
    21   16   21 1
    22   17   18 1
    23   17   19 1
    24   17   36 1
    25   18   37 1
    26   19   20 1
    27   19   21 1
    28   19   38 1
    29   20   39 1
    30   21   22 1
    31   21   40 1
    32   22   23 ar
    33   22   31 ar
    34   23   24 ar
    35   23   41 1
    36   24   25 ar
    37   25   26 ar
    38   25   31 ar
    39   26   27 2
    40   26   28 ar
    41   27   42 1
    42   28   29 ar
    43   28   44 1
    44   29   30 ar
    45   29   43 1
    46   30   31 ar
@<TRIPOS>SUBSTRUCTURE
     1 ATP         1 GROUP 0 A     ****
@<TRIPOS>MOLECULE
[[[3,4-dihydroxy-5-(6-imino-1~{H}-purin-9-yl)tetrahydrofuran-2-yl]methoxy-oxido-phosphoryl]oxy-oxido-phosphoryl] hydrogen phosphate
   44    46     1     0     0
SMALL
USER_CHARGES

@<TRIPOS>ATOM
      1 PG         -0.5709    3.5262   -4.9196 P.3       1 ATP         1.5257
      2 O1G        -0.3429    2.0861   -5.3213 O.co2     1 ATP        -0.8737
      3 O2G         0.2273    4.6450   -5.5513 O.co2     1 ATP        -0.8737
      4 O3G        -2.1595    3.8655   -5.0846 O.3       1 ATP        -0.7971
      5 PB         -0.7639    4.9217   -2.3198 P.3       1 ATP         1.6824
      6 O1B         0.2629    5.9981   -2.5929 O.co2     1 ATP        -0.8925
      7 O2B        -2.2453    5.2232   -2.3633 O.co2     1 ATP        -0.8925
      8 O3B        -0.4599    3.6487   -3.2959 O.3       1 ATP        -0.8047
      9 PA         -0.4665    4.8322    0.6228 P.3       1 ATP         1.5908
     10 O1A        -1.9050    5.1497    0.9698 O.co2     1 ATP        -0.8932
     11 O2A         0.6096    5.8892    0.7429 O.co2     1 ATP        -0.8932
     12 O3A        -0.4148    4.2162   -0.8897 O.3       1 ATP        -0.8088
     13 O5'         0.0178    3.5131    1.4595 O.3       1 ATP        -0.5646
     14 C5'        -0.8811    2.4285    1.6206 C.3       1 ATP         0.2204
     15 C4'        -0.1994    1.3333    2.4288 C.3       1 ATP         0.0965
     16 O4'        -1.1285    0.2356    2.5840 O.3       1 ATP        -0.3907
     17 C3'         1.0324    0.7610    1.7344 C.3       1 ATP         0.0763
     18 O3'         1.9175    0.2377    2.7247 O.3       1 ATP        -0.5884
     19 C2'         0.4468   -0.3802    0.9263 C.3       1 ATP         0.0784
     20 O2'         1.3993   -1.3703    0.5961 O.3       1 ATP        -0.6085
     21 C1'        -0.6159   -0.9100    1.8769 C.3       1 ATP         0.2186
     22 N9         -1.7127   -1.6108    1.2130 N.pl3     1 ATP        -0.1699
     23 C8         -2.8662   -1.0361    0.7388 C.ar      1 ATP         0.4438
     24 N7         -3.6774   -1.9166    0.1867 N.2       1 ATP        -0.6280
     25 C5         -3.0159   -3.1045    0.3122 C.ar      1 ATP         0.2109
     26 C6         -3.4377   -4.4169   -0.1199 C.ar      1 ATP         0.6180
     27 N6         -4.5720   -4.5691   -0.7080 N.2       1 ATP        -0.8319
     28 N1         -2.4600   -5.3463    0.2071 N.pl3     1 ATP        -0.8664
     29 C2         -1.2595   -5.0554    0.8515 C.ar      1 ATP         0.5952
     30 N3         -0.8555   -3.8803    1.2516 N.2       1 ATP        -0.5599
     31 C4         -1.7946   -2.9457    0.9448 C.ar      1 ATP         0.0076
     32 HOG3       -2.4696    4.7688   -4.8609 H         1 ATP         0.4101
     33 H5'1       -1.7771    2.7849    2.1387 H         1 ATP         0.0364
     34 H5'2       -1.1654    2.0541    0.6320 H         1 ATP         0.0364
     35 H4'         0.0403    1.7078    3.4343 H         1 ATP         0.0945
     36 H3'         1.5907    1.4859    1.1353 H         1 ATP         0.0703
     37 HO3'        2.1521    0.9800    3.3017 H         1 ATP         0.4099
     38 H2'        -0.0017    0.0018    0.0005 H         1 ATP         0.0676
     39 HO2'        2.0953   -0.9375    0.0709 H         1 ATP         0.4291
     40 H1'        -0.1998   -1.6319    2.6178 H         1 ATP         0.0950
     41 H8         -3.0558    0.0252    0.8256 H         1 ATP         0.1135
     42 HN62       -4.7047   -5.5592   -0.9421 H         1 ATP         0.3588
     43 H2         -0.6372   -5.9505    1.0077 H         1 ATP         0.0302
     44 H44        -2.6338   -6.3155   -0.0469 H         1 ATP         0.4215
@<TRIPOS>BOND
     1    1    2 2
     2    1    3 1
     3    1    4 1
     4    1    8 1
     5    4   32 1
     6    5    6 2
     7    5    7 1
     8    5    8 1
     9    5   12 1
    10    9   10 2
    11    9   11 1
    12    9   12 1
    13    9   13 1
    14   13   14 1
    15   14   15 1
    16   14   33 1
    17   14   34 1
    18   15   16 1
    19   15   17 1
    20   15   35 1
    21   16   21 1
    22   17   18 1
    23   17   19 1
    24   17   36 1
    25   18   37 1
    26   19   20 1
    27   19   21 1
    28   19   38 1
    29   20   39 1
    30   21   22 1
    31   21   40 1
    32   22   23 ar
    33   22   31 ar
    34   23   24 ar
    35   23   41 1
    36   24   25 ar
    37   25   26 ar
    38   25   31 ar
    39   26   27 2
    40   26   28 ar
    41   27   42 1
    42   28   29 ar
    43   28   44 1
    44   29   30 ar
    45   29   43 1
    46   30   31 ar
@<TRIPOS>SUBSTRUCTURE
     1 ATP         1 GROUP 0 A     ****
@<TRIPOS>MOLECULE
[[[3,4-dihydroxy-5-(6-imino-1~{H}-purin-9-yl)tetrahydrofuran-2-yl]methoxy-oxido-phosphoryl]oxy-oxido-phosphoryl] hydrogen phosphate
   44    46     1     0     0
SMALL
USER_CHARGES

@<TRIPOS>ATOM
      1 PG         -3.4161    6.0503   -2.9798 P.3       1 ATP         1.5257
      2 O1G        -4.6706    6.3161   -2.1779 O.co2     1 ATP        -0.8737
      3 O2G        -3.4807    5.3300   -4.3082 O.co2     1 ATP        -0.8737
      4 O3G        -2.6286    7.4644   -3.1946 O.3       1 ATP        -0.7971
      5 PB         -0.7639    4.9217   -2.3198 P.3       1 ATP         1.6824
      6 O1B        -0.7184    3.8682   -3.4041 O.co2     1 ATP        -0.8925
      7 O2B         0.0337    6.2015   -2.4370 O.co2     1 ATP        -0.8925
      8 O3B        -2.3239    5.3024   -2.0250 O.3       1 ATP        -0.8047
      9 PA         -0.4665    4.8322    0.6228 P.3       1 ATP         1.5908
     10 O1A        -1.9050    5.1497    0.9698 O.co2     1 ATP        -0.8932
     11 O2A         0.6096    5.8892    0.7429 O.co2     1 ATP        -0.8932
     12 O3A        -0.4148    4.2162   -0.8897 O.3       1 ATP        -0.8088
     13 O5'         0.0178    3.5131    1.4595 O.3       1 ATP        -0.5646
     14 C5'        -0.8811    2.4285    1.6206 C.3       1 ATP         0.2204
     15 C4'        -0.1994    1.3333    2.4288 C.3       1 ATP         0.0965
     16 O4'        -1.1285    0.2356    2.5840 O.3       1 ATP        -0.3907
     17 C3'         1.0324    0.7610    1.7344 C.3       1 ATP         0.0763
     18 O3'         1.9175    0.2377    2.7247 O.3       1 ATP        -0.5884
     19 C2'         0.4468   -0.3802    0.9263 C.3       1 ATP         0.0784
     20 O2'         1.3993   -1.3703    0.5961 O.3       1 ATP        -0.6085
     21 C1'        -0.6159   -0.9100    1.8769 C.3       1 ATP         0.2186
     22 N9         -1.7127   -1.6108    1.2130 N.pl3     1 ATP        -0.1699
     23 C8         -2.8662   -1.0361    0.7388 C.ar      1 ATP         0.4438
     24 N7         -3.6774   -1.9166    0.1867 N.2       1 ATP        -0.6280
     25 C5         -3.0159   -3.1045    0.3122 C.ar      1 ATP         0.2109
     26 C6         -3.4377   -4.4169   -0.1199 C.ar      1 ATP         0.6180
     27 N6         -4.5720   -4.5691   -0.7080 N.2       1 ATP        -0.8319
     28 N1         -2.4600   -5.3463    0.2071 N.pl3     1 ATP        -0.8664
     29 C2         -1.2595   -5.0554    0.8515 C.ar      1 ATP         0.5952
     30 N3         -0.8555   -3.8803    1.2516 N.2       1 ATP        -0.5599
     31 C4         -1.7946   -2.9457    0.9448 C.ar      1 ATP         0.0076
     32 HOG3       -1.7880    7.4585   -3.7003 H         1 ATP         0.4101
     33 H5'1       -1.7771    2.7849    2.1387 H         1 ATP         0.0364
     34 H5'2       -1.1654    2.0541    0.6320 H         1 ATP         0.0364
     35 H4'         0.0403    1.7078    3.4343 H         1 ATP         0.0945
     36 H3'         1.5907    1.4859    1.1353 H         1 ATP         0.0703
     37 HO3'        2.6839   -0.1150    2.2479 H         1 ATP         0.4099
     38 H2'        -0.0017    0.0018    0.0005 H         1 ATP         0.0676
     39 HO2'        2.0953   -0.9375    0.0709 H         1 ATP         0.4291
     40 H1'        -0.1998   -1.6319    2.6178 H         1 ATP         0.0950
     41 H8         -3.0558    0.0252    0.8256 H         1 ATP         0.1135
     42 HN62       -4.7047   -5.5592   -0.9421 H         1 ATP         0.3588
     43 H2         -0.6372   -5.9505    1.0077 H         1 ATP         0.0302
     44 H44        -2.6338   -6.3155   -0.0469 H         1 ATP         0.4215
@<TRIPOS>BOND
     1    1    2 2
     2    1    3 1
     3    1    4 1
     4    1    8 1
     5    4   32 1
     6    5    6 2
     7    5    7 1
     8    5    8 1
     9    5   12 1
    10    9   10 2
    11    9   11 1
    12    9   12 1
    13    9   13 1
    14   13   14 1
    15   14   15 1
    16   14   33 1
    17   14   34 1
    18   15   16 1
    19   15   17 1
    20   15   35 1
    21   16   21 1
    22   17   18 1
    23   17   19 1
    24   17   36 1
    25   18   37 1
    26   19   20 1
    27   19   21 1
    28   19   38 1
    29   20   39 1
    30   21   22 1
    31   21   40 1
    32   22   23 ar
    33   22   31 ar
    34   23   24 ar
    35   23   41 1
    36   24   25 ar
    37   25   26 ar
    38   25   31 ar
    39   26   27 2
    40   26   28 ar
    41   27   42 1
    42   28   29 ar
    43   28   44 1
    44   29   30 ar
    45   29   43 1
    46   30   31 ar
@<TRIPOS>SUBSTRUCTURE
     1 ATP         1 GROUP 0 A     ****
@<TRIPOS>MOLECULE
[[[3,4-dihydroxy-5-(6-imino-1~{H}-purin-9-yl)tetrahydrofuran-2-yl]methoxy-oxido-phosphoryl]oxy-oxido-phosphoryl] hydrogen phosphate
   44    46     1     0     0
SMALL
USER_CHARGES

@<TRIPOS>ATOM
      1 PG         -1.4996    7.5702   -1.9976 P.3       1 ATP         1.5257
      2 O1G        -2.2029    8.8200   -1.5171 O.co2     1 ATP        -0.8737
      3 O2G        -1.7238    7.0413   -3.3968 O.co2     1 ATP        -0.8737
      4 O3G         0.1057    7.7565   -1.7648 O.3       1 ATP        -0.7971
      5 PB         -3.1521    5.5916   -0.5491 P.3       1 ATP         1.6824
      6 O1B        -4.0824    6.5688    0.1344 O.co2     1 ATP        -0.8925
      7 O2B        -3.6030    4.7895   -1.7495 O.co2     1 ATP        -0.8925
      8 O3B        -1.7658    6.3664   -0.9281 O.3       1 ATP        -0.8047
      9 PA         -3.3161    3.4234    1.4576 P.3       1 ATP         1.5908
     10 O1A        -3.8159    2.3395    0.5272 O.co2     1 ATP        -0.8932
     11 O2A        -4.2599    4.1154    2.4166 O.co2     1 ATP        -0.8932
     12 O3A        -2.5549    4.5661    0.5718 O.3       1 ATP        -0.8088
     13 O5'        -2.0401    2.8620    2.3128 O.3       1 ATP        -0.5646
     14 C5'        -0.8811    2.4285    1.6206 C.3       1 ATP         0.2204
     15 C4'        -0.1994    1.3333    2.4288 C.3       1 ATP         0.0965
     16 O4'        -1.1285    0.2356    2.5840 O.3       1 ATP        -0.3907
     17 C3'         1.0324    0.7610    1.7344 C.3       1 ATP         0.0763
     18 O3'         1.9175    0.2377    2.7247 O.3       1 ATP        -0.5884
     19 C2'         0.4468   -0.3802    0.9263 C.3       1 ATP         0.0784
     20 O2'         1.3993   -1.3703    0.5961 O.3       1 ATP        -0.6085
     21 C1'        -0.6159   -0.9100    1.8769 C.3       1 ATP         0.2186
     22 N9         -1.7127   -1.6108    1.2130 N.pl3     1 ATP        -0.1699
     23 C8         -2.5485   -1.0808    0.2609 C.ar      1 ATP         0.4438
     24 N7         -3.4476   -1.9486   -0.1593 N.2       1 ATP        -0.6280
     25 C5         -3.1762   -3.0816    0.5530 C.ar      1 ATP         0.2109
     26 C6         -3.8510   -4.3579    0.5006 C.ar      1 ATP         0.6180
     27 N6         -4.8468   -4.5293   -0.2961 N.2       1 ATP        -0.8319
     28 N1         -3.2499   -5.2342    1.3937 N.pl3     1 ATP        -0.8664
     29 C2         -2.1646   -4.9275    2.2116 C.ar      1 ATP         0.5952
     30 N3         -1.5382   -3.7840    2.2778 N.2       1 ATP        -0.5599
     31 C4         -2.1054   -2.9018    1.4120 C.ar      1 ATP         0.0076
     32 HOG3        0.7037    7.0249   -2.0285 H         1 ATP         0.4101
     33 H5'1       -1.1767    2.0502    0.6368 H         1 ATP         0.0364
     34 H5'2       -0.2080    3.2814    1.4876 H         1 ATP         0.0364
     35 H4'         0.0403    1.7078    3.4343 H         1 ATP         0.0945
     36 H3'         1.5907    1.4859    1.1353 H         1 ATP         0.0703
     37 HO3'        2.6839   -0.1150    2.2479 H         1 ATP         0.4099
     38 H2'        -0.0017    0.0018    0.0005 H         1 ATP         0.0676
     39 HO2'        0.9369   -2.0558    0.0825 H         1 ATP         0.4291
     40 H1'        -0.1998   -1.6319    2.6178 H         1 ATP         0.0950
     41 H8         -2.4515   -0.0599   -0.0829 H         1 ATP         0.1135
     42 HN62       -5.1990   -5.4882   -0.2005 H         1 ATP         0.3588
     43 H2         -1.8555   -5.7783    2.8388 H         1 ATP         0.0302
     44 H44        -3.6312   -6.1750    1.4526 H         1 ATP         0.4215
@<TRIPOS>BOND
     1    1    2 2
     2    1    3 1
     3    1    4 1
     4    1    8 1
     5    4   32 1
     6    5    6 2
     7    5    7 1
     8    5    8 1
     9    5   12 1
    10    9   10 2
    11    9   11 1
    12    9   12 1
    13    9   13 1
    14   13   14 1
    15   14   15 1
    16   14   33 1
    17   14   34 1
    18   15   16 1
    19   15   17 1
    20   15   35 1
    21   16   21 1
    22   17   18 1
    23   17   19 1
    24   17   36 1
    25   18   37 1
    26   19   20 1
    27   19   21 1
    28   19   38 1
    29   20   39 1
    30   21   22 1
    31   21   40 1
    32   22   23 ar
    33   22   31 ar
    34   23   24 ar
    35   23   41 1
    36   24   25 ar
    37   25   26 ar
    38   25   31 ar
    39   26   27 2
    40   26   28 ar
    41   27   42 1
    42   28   29 ar
    43   28   44 1
    44   29   30 ar
    45   29   43 1
    46   30   31 ar
@<TRIPOS>SUBSTRUCTURE
     1 ATP         1 GROUP 0 A     ****
@<TRIPOS>MOLECULE
[[[3,4-dihydroxy-5-(6-imino-1~{H}-purin-9-yl)tetrahydrofuran-2-yl]methoxy-oxido-phosphoryl]oxy-oxido-phosphoryl] hydrogen phosphate
   44    46     1     0     0
SMALL
USER_CHARGES

@<TRIPOS>ATOM
      1 PG         -3.0457    9.1881    2.3129 P.3       1 ATP         1.5257
      2 O1G        -3.8434    9.3058    3.5924 O.co2     1 ATP        -0.8737
      3 O2G        -3.6422    9.5973    0.9846 O.co2     1 ATP        -0.8737
      4 O3G        -1.6296    9.9765    2.5101 O.3       1 ATP        -0.7971
      5 PB         -1.4278    7.0312    1.0987 P.3       1 ATP         1.6824
      6 O1B        -2.0946    7.0199   -0.2587 O.co2     1 ATP        -0.8925
      7 O2B        -0.0684    7.6633    1.2985 O.co2     1 ATP        -0.8925
      8 O3B        -2.4659    7.6677    2.1864 O.3       1 ATP        -0.8047
      9 PA         -2.5926    4.4187    1.8556 P.3       1 ATP         1.5908
     10 O1A        -3.1164    4.0395    0.4873 O.co2     1 ATP        -0.8932
     11 O2A        -3.5302    4.9262    2.9294 O.co2     1 ATP        -0.8932
     12 O3A        -1.3848    5.5039    1.6734 O.3       1 ATP        -0.8088
     13 O5'        -1.7336    3.1724    2.4750 O.3       1 ATP        -0.5646
     14 C5'        -0.8811    2.4285    1.6206 C.3       1 ATP         0.2204
     15 C4'        -0.1994    1.3333    2.4288 C.3       1 ATP         0.0965
     16 O4'        -1.1285    0.2356    2.5840 O.3       1 ATP        -0.3907
     17 C3'         1.0324    0.7610    1.7344 C.3       1 ATP         0.0763
     18 O3'         1.9175    0.2377    2.7247 O.3       1 ATP        -0.5884
     19 C2'         0.4468   -0.3802    0.9263 C.3       1 ATP         0.0784
     20 O2'         1.3993   -1.3703    0.5961 O.3       1 ATP        -0.6085
     21 C1'        -0.6159   -0.9100    1.8769 C.3       1 ATP         0.2186
     22 N9         -1.7127   -1.6108    1.2130 N.pl3     1 ATP        -0.1699
     23 C8         -2.8662   -1.0361    0.7388 C.ar      1 ATP         0.4438
     24 N7         -3.6774   -1.9166    0.1867 N.2       1 ATP        -0.6280
     25 C5         -3.0159   -3.1045    0.3122 C.ar      1 ATP         0.2109
     26 C6         -3.4377   -4.4169   -0.1199 C.ar      1 ATP         0.6180
     27 N6         -4.5720   -4.5691   -0.7080 N.2       1 ATP        -0.8319
     28 N1         -2.4600   -5.3463    0.2071 N.pl3     1 ATP        -0.8664
     29 C2         -1.2595   -5.0554    0.8515 C.ar      1 ATP         0.5952
     30 N3         -0.8555   -3.8803    1.2516 N.2       1 ATP        -0.5599
     31 C4         -1.7946   -2.9457    0.9448 C.ar      1 ATP         0.0076
     32 HOG3       -0.9954    9.9916    1.7618 H         1 ATP         0.4101
     33 H5'1       -1.4800    1.9927    0.8146 H         1 ATP         0.0364
     34 H5'2       -0.1367    3.1040    1.1872 H         1 ATP         0.0364
     35 H4'         0.0403    1.7078    3.4343 H         1 ATP         0.0945
     36 H3'         1.5907    1.4859    1.1353 H         1 ATP         0.0703
     37 HO3'        2.6839   -0.1150    2.2479 H         1 ATP         0.4099
     38 H2'        -0.0017    0.0018    0.0005 H         1 ATP         0.0676
     39 HO2'        2.0953   -0.9375    0.0709 H         1 ATP         0.4291
     40 H1'        -0.1998   -1.6319    2.6178 H         1 ATP         0.0950
     41 H8         -3.0558    0.0252    0.8256 H         1 ATP         0.1135
     42 HN62       -4.7047   -5.5592   -0.9421 H         1 ATP         0.3588
     43 H2         -0.6372   -5.9505    1.0077 H         1 ATP         0.0302
     44 H44        -2.6338   -6.3155   -0.0469 H         1 ATP         0.4215
@<TRIPOS>BOND
     1    1    2 2
     2    1    3 1
     3    1    4 1
     4    1    8 1
     5    4   32 1
     6    5    6 2
     7    5    7 1
     8    5    8 1
     9    5   12 1
    10    9   10 2
    11    9   11 1
    12    9   12 1
    13    9   13 1
    14   13   14 1
    15   14   15 1
    16   14   33 1
    17   14   34 1
    18   15   16 1
    19   15   17 1
    20   15   35 1
    21   16   21 1
    22   17   18 1
    23   17   19 1
    24   17   36 1
    25   18   37 1
    26   19   20 1
    27   19   21 1
    28   19   38 1
    29   20   39 1
    30   21   22 1
    31   21   40 1
    32   22   23 ar
    33   22   31 ar
    34   23   24 ar
    35   23   41 1
    36   24   25 ar
    37   25   26 ar
    38   25   31 ar
    39   26   27 2
    40   26   28 ar
    41   27   42 1
    42   28   29 ar
    43   28   44 1
    44   29   30 ar
    45   29   43 1
    46   30   31 ar
@<TRIPOS>SUBSTRUCTURE
     1 ATP         1 GROUP 0 A     ****
@<TRIPOS>MOLECULE
[[[3,4-dihydroxy-5-(6-imino-1~{H}-purin-9-yl)tetrahydrofuran-2-yl]methoxy-oxido-phosphoryl]oxy-oxido-phosphoryl] hydrogen phosphate
   44    46     1     0     0
SMALL
USER_CHARGES

@<TRIPOS>ATOM
      1 PG          3.2773    4.6915   -4.2732 P.3       1 ATP         1.5257
      2 O1G         3.4772    6.1426   -4.6496 O.co2     1 ATP        -0.8737
      3 O2G         2.5443    4.3111   -3.0060 O.co2     1 ATP        -0.8737
      4 O3G         2.5742    3.9218   -5.5298 O.3       1 ATP        -0.7971
      5 PB          6.0246    4.1336   -3.3327 P.3       1 ATP         1.6824
      6 O1B         7.0435    3.0666   -3.6660 O.co2     1 ATP        -0.8925
      7 O2B         6.3994    5.5988   -3.3229 O.co2     1 ATP        -0.8925
      8 O3B         4.7222    3.9328   -4.2965 O.3       1 ATP        -0.8047
      9 PA          5.9684    3.7219   -0.4031 P.3       1 ATP         1.5908
     10 O1A         6.3633    5.1276   -0.0051 O.co2     1 ATP        -0.8932
     11 O2A         6.9719    2.5908   -0.3452 O.co2     1 ATP        -0.8932
     12 O3A         5.3259    3.7621   -1.9049 O.3       1 ATP        -0.8088
     13 O5'         4.6405    3.2699    0.4378 O.3       1 ATP        -0.5646
     14 C5'         4.0922    1.9801    0.2227 C.3       1 ATP         0.2204
     15 C4'         2.5944    2.0310    0.4653 C.3       1 ATP         0.0965
     16 O4'         1.9327    2.5740   -0.6889 O.3       1 ATP        -0.3907
     17 C3'         1.9685    0.6634    0.6767 C.3       1 ATP         0.0763
     18 O3'         2.1425    0.1975    1.9977 O.3       1 ATP        -0.5884
     19 C2'         0.5176    0.9128    0.3099 C.3       1 ATP         0.0784
     20 O2'        -0.2103    1.4454    1.4152 O.3       1 ATP        -0.6085
     21 C1'         0.6219    1.9765   -0.7844 C.3       1 ATP         0.2186
     22 N9          0.4237    1.4496   -2.1357 N.pl3     1 ATP        -0.1699
     23 C8          1.4069    0.9710   -2.9662 C.ar      1 ATP         0.4438
     24 N7          0.9316    0.5623   -4.1260 N.2       1 ATP        -0.6280
     25 C5         -0.4120    0.7884   -4.0344 C.ar      1 ATP         0.2109
     26 C6         -1.4353    0.5283   -5.0204 C.ar      1 ATP         0.6180
     27 N6         -1.1199    0.0176   -6.1586 N.2       1 ATP        -0.8319
     28 N1         -2.6704    0.9095   -4.5147 N.pl3     1 ATP        -0.8664
     29 C2         -2.8863    1.4571   -3.2520 C.ar      1 ATP         0.5952
     30 N3         -1.9805    1.7017   -2.3442 N.2       1 ATP        -0.5599
     31 C4         -0.7561    1.3381   -2.8112 C.ar      1 ATP         0.0076
     32 HOG3        2.3773    2.9650   -5.4402 H         1 ATP         0.4101
     33 H5'1        4.3028    1.6728   -0.8066 H         1 ATP         0.0364
     34 H5'2        4.5677    1.2738    0.9106 H         1 ATP         0.0364
     35 H4'         2.3752    2.7029    1.3156 H         1 ATP         0.0945
     36 H3'         2.4336   -0.1217   -0.0015 H         1 ATP         0.0703
     37 HO3'        1.7160   -0.6716    2.0397 H         1 ATP         0.4099
     38 H2'         0.0316    0.0155   -0.0339 H         1 ATP         0.0676
     39 HO2'       -0.1608    0.7921    2.1351 H         1 ATP         0.4291
     40 H1'        -0.1474    2.7798   -0.6651 H         1 ATP         0.0950
     41 H8          2.4466    0.9468   -2.6694 H         1 ATP         0.1135
     42 HN62       -1.9661   -0.0965   -6.7275 H         1 ATP         0.3588
     43 H2         -3.9481    1.6825   -3.0660 H         1 ATP         0.0302
     44 H44        -3.4814    0.7753   -5.1133 H         1 ATP         0.4215
@<TRIPOS>BOND
     1    1    2 2
     2    1    3 1
     3    1    4 1
     4    1    8 1
     5    4   32 1
     6    5    6 2
     7    5    7 1
     8    5    8 1
     9    5   12 1
    10    9   10 2
    11    9   11 1
    12    9   12 1
    13    9   13 1
    14   13   14 1
    15   14   15 1
    16   14   33 1
    17   14   34 1
    18   15   16 1
    19   15   17 1
    20   15   35 1
    21   16   21 1
    22   17   18 1
    23   17   19 1
    24   17   36 1
    25   18   37 1
    26   19   20 1
    27   19   21 1
    28   19   38 1
    29   20   39 1
    30   21   22 1
    31   21   40 1
    32   22   23 ar
    33   22   31 ar
    34   23   24 ar
    35   23   41 1
    36   24   25 ar
    37   25   26 ar
    38   25   31 ar
    39   26   27 2
    40   26   28 ar
    41   27   42 1
    42   28   29 ar
    43   28   44 1
    44   29   30 ar
    45   29   43 1
    46   30   31 ar
@<TRIPOS>SUBSTRUCTURE
     1 ATP         1 GROUP 0 A     ****
@<TRIPOS>MOLECULE
[[[3,4-dihydroxy-5-(6-imino-1~{H}-purin-9-yl)tetrahydrofuran-2-yl]methoxy-oxido-phosphoryl]oxy-oxido-phosphoryl] hydrogen phosphate
   44    46     1     0     0
SMALL
USER_CHARGES

@<TRIPOS>ATOM
      1 PG         -4.4242    5.2783    3.3242 P.3       1 ATP         1.5257
      2 O1G        -4.3846    4.2324    4.4159 O.co2     1 ATP        -0.8737
      3 O2G        -4.6223    4.8846    1.8773 O.co2     1 ATP        -0.8737
      4 O3G        -5.5491    6.3950    3.7162 O.3       1 ATP        -0.7971
      5 PB         -1.5242    5.8412    3.1954 P.3       1 ATP         1.6824
      6 O1B        -0.7051    7.1108    3.2653 O.co2     1 ATP        -0.8925
      7 O2B        -1.1766    4.6371    4.0420 O.co2     1 ATP        -0.8925
      8 O3B        -3.0941    6.2171    3.4395 O.3       1 ATP        -0.8047
      9 PA         -0.4665    4.8322    0.6228 P.3       1 ATP         1.5908
     10 O1A         0.6558    5.8467    0.5864 O.co2     1 ATP        -0.8932
     11 O2A        -1.1281    4.3644   -0.6552 O.co2     1 ATP        -0.8932
     12 O3A        -1.6297    5.3718    1.6355 O.3       1 ATP        -0.8088
     13 O5'         0.0178    3.5131    1.4595 O.3       1 ATP        -0.5646
     14 C5'        -0.8811    2.4285    1.6206 C.3       1 ATP         0.2204
     15 C4'        -0.1994    1.3333    2.4288 C.3       1 ATP         0.0965
     16 O4'        -1.1285    0.2356    2.5840 O.3       1 ATP        -0.3907
     17 C3'         1.0324    0.7610    1.7344 C.3       1 ATP         0.0763
     18 O3'         1.9175    0.2377    2.7247 O.3       1 ATP        -0.5884
     19 C2'         0.4468   -0.3802    0.9263 C.3       1 ATP         0.0784
     20 O2'         1.3993   -1.3703    0.5961 O.3       1 ATP        -0.6085
     21 C1'        -0.6159   -0.9100    1.8769 C.3       1 ATP         0.2186
     22 N9         -1.7127   -1.6108    1.2130 N.pl3     1 ATP        -0.1699
     23 C8         -1.7690   -2.9583    0.9549 C.ar      1 ATP         0.4438
     24 N7         -2.8827   -3.3076    0.3418 N.2       1 ATP        -0.6280
     25 C5         -3.5683   -2.1351    0.2017 C.ar      1 ATP         0.2109
     26 C6         -4.8617   -1.9185   -0.4044 C.ar      1 ATP         0.6180
     27 N6         -5.5166   -2.9094   -0.8993 N.2       1 ATP        -0.8319
     28 N1         -5.1837   -0.5701   -0.3344 N.pl3     1 ATP        -0.8664
     29 C2         -4.3821    0.4180    0.2330 C.ar      1 ATP         0.5952
     30 N3         -3.2117    0.2488    0.7860 N.2       1 ATP        -0.5599
     31 C4         -2.8672   -1.0657    0.7327 C.ar      1 ATP         0.0076
     32 HOG3       -5.6954    7.1459    3.1022 H         1 ATP         0.4101
     33 H5'1       -1.7771    2.7849    2.1387 H         1 ATP         0.0364
     34 H5'2       -1.1654    2.0541    0.6320 H         1 ATP         0.0364
     35 H4'         0.0403    1.7078    3.4343 H         1 ATP         0.0945
     36 H3'         1.5907    1.4859    1.1353 H         1 ATP         0.0703
     37 HO3'        2.6839   -0.1150    2.2479 H         1 ATP         0.4099
     38 H2'        -0.0017    0.0018    0.0005 H         1 ATP         0.0676
     39 HO2'        2.0953   -0.9375    0.0709 H         1 ATP         0.4291
     40 H1'        -0.1998   -1.6319    2.6178 H         1 ATP         0.0950
     41 H8         -0.9697   -3.6300    1.2371 H         1 ATP         0.1135
     42 HN62       -6.4060   -2.5723   -1.2840 H         1 ATP         0.3588
     43 H2         -4.8409    1.4176    0.1757 H         1 ATP         0.0302
     44 H44        -6.0768   -0.2826   -0.7263 H         1 ATP         0.4215
@<TRIPOS>BOND
     1    1    2 2
     2    1    3 1
     3    1    4 1
     4    1    8 1
     5    4   32 1
     6    5    6 2
     7    5    7 1
     8    5    8 1
     9    5   12 1
    10    9   10 2
    11    9   11 1
    12    9   12 1
    13    9   13 1
    14   13   14 1
    15   14   15 1
    16   14   33 1
    17   14   34 1
    18   15   16 1
    19   15   17 1
    20   15   35 1
    21   16   21 1
    22   17   18 1
    23   17   19 1
    24   17   36 1
    25   18   37 1
    26   19   20 1
    27   19   21 1
    28   19   38 1
    29   20   39 1
    30   21   22 1
    31   21   40 1
    32   22   23 ar
    33   22   31 ar
    34   23   24 ar
    35   23   41 1
    36   24   25 ar
    37   25   26 ar
    38   25   31 ar
    39   26   27 2
    40   26   28 ar
    41   27   42 1
    42   28   29 ar
    43   28   44 1
    44   29   30 ar
    45   29   43 1
    46   30   31 ar
@<TRIPOS>SUBSTRUCTURE
     1 ATP         1 GROUP 0 A     ****
@<TRIPOS>MOLECULE
[[[3,4-dihydroxy-5-(6-imino-1~{H}-purin-9-yl)tetrahydrofuran-2-yl]methoxy-oxido-phosphoryl]oxy-oxido-phosphoryl] hydrogen phosphate
   44    46     1     0     0
SMALL
USER_CHARGES

@<TRIPOS>ATOM
      1 PG         -4.2275    5.1765   -3.2457 P.3       1 ATP         1.5257
      2 O1G        -3.2641    6.1912   -3.8200 O.co2     1 ATP        -0.8737
      3 O2G        -5.7075    5.4749   -3.1543 O.co2     1 ATP        -0.8737
      4 O3G        -4.0314    3.7656   -4.0437 O.3       1 ATP        -0.7971
      5 PB         -3.5625    5.5559   -0.3896 P.3       1 ATP         1.6824
      6 O1B        -2.5043    6.6214   -0.5695 O.co2     1 ATP        -0.8925
      7 O2B        -4.9519    5.9057    0.0952 O.co2     1 ATP        -0.8925
      8 O3B        -3.6911    4.7062   -1.7778 O.3       1 ATP        -0.8047
      9 PA         -2.5400    4.4095    2.1393 P.3       1 ATP         1.5908
     10 O1A        -3.7865    4.6329    2.9680 O.co2     1 ATP        -0.8932
     11 O2A        -1.3370    5.3145    2.2921 O.co2     1 ATP        -0.8932
     12 O3A        -2.9585    4.3736    0.5603 O.3       1 ATP        -0.8088
     13 O5'        -2.0401    2.8620    2.3128 O.3       1 ATP        -0.5646
     14 C5'        -0.8811    2.4285    1.6206 C.3       1 ATP         0.2204
     15 C4'        -0.1994    1.3333    2.4288 C.3       1 ATP         0.0965
     16 O4'        -1.1285    0.2356    2.5840 O.3       1 ATP        -0.3907
     17 C3'         1.0324    0.7610    1.7344 C.3       1 ATP         0.0763
     18 O3'         1.9175    0.2377    2.7247 O.3       1 ATP        -0.5884
     19 C2'         0.4468   -0.3802    0.9263 C.3       1 ATP         0.0784
     20 O2'         1.3993   -1.3703    0.5961 O.3       1 ATP        -0.6085
     21 C1'        -0.6159   -0.9100    1.8769 C.3       1 ATP         0.2186
     22 N9         -1.7127   -1.6108    1.2130 N.pl3     1 ATP        -0.1699
     23 C8         -1.7690   -2.9583    0.9549 C.ar      1 ATP         0.4438
     24 N7         -2.8827   -3.3076    0.3418 N.2       1 ATP        -0.6280
     25 C5         -3.5683   -2.1351    0.2017 C.ar      1 ATP         0.2109
     26 C6         -4.8617   -1.9185   -0.4044 C.ar      1 ATP         0.6180
     27 N6         -5.5166   -2.9094   -0.8993 N.2       1 ATP        -0.8319
     28 N1         -5.1837   -0.5701   -0.3344 N.pl3     1 ATP        -0.8664
     29 C2         -4.3821    0.4180    0.2330 C.ar      1 ATP         0.5952
     30 N3         -3.2117    0.2488    0.7860 N.2       1 ATP        -0.5599
     31 C4         -2.8672   -1.0657    0.7327 C.ar      1 ATP         0.0076
     32 HOG3       -4.5896    3.0015   -3.7852 H         1 ATP         0.4101
     33 H5'1       -1.1767    2.0502    0.6368 H         1 ATP         0.0364
     34 H5'2       -0.2080    3.2814    1.4876 H         1 ATP         0.0364
     35 H4'         0.0403    1.7078    3.4343 H         1 ATP         0.0945
     36 H3'         1.5907    1.4859    1.1353 H         1 ATP         0.0703
     37 HO3'        2.6839   -0.1150    2.2479 H         1 ATP         0.4099
     38 H2'        -0.0017    0.0018    0.0005 H         1 ATP         0.0676
     39 HO2'        2.0953   -0.9375    0.0709 H         1 ATP         0.4291
     40 H1'        -0.1998   -1.6319    2.6178 H         1 ATP         0.0950
     41 H8         -0.9697   -3.6300    1.2371 H         1 ATP         0.1135
     42 HN62       -6.4060   -2.5723   -1.2840 H         1 ATP         0.3588
     43 H2         -4.8409    1.4176    0.1757 H         1 ATP         0.0302
     44 H44        -6.0768   -0.2826   -0.7263 H         1 ATP         0.4215
@<TRIPOS>BOND
     1    1    2 2
     2    1    3 1
     3    1    4 1
     4    1    8 1
     5    4   32 1
     6    5    6 2
     7    5    7 1
     8    5    8 1
     9    5   12 1
    10    9   10 2
    11    9   11 1
    12    9   12 1
    13    9   13 1
    14   13   14 1
    15   14   15 1
    16   14   33 1
    17   14   34 1
    18   15   16 1
    19   15   17 1
    20   15   35 1
    21   16   21 1
    22   17   18 1
    23   17   19 1
    24   17   36 1
    25   18   37 1
    26   19   20 1
    27   19   21 1
    28   19   38 1
    29   20   39 1
    30   21   22 1
    31   21   40 1
    32   22   23 ar
    33   22   31 ar
    34   23   24 ar
    35   23   41 1
    36   24   25 ar
    37   25   26 ar
    38   25   31 ar
    39   26   27 2
    40   26   28 ar
    41   27   42 1
    42   28   29 ar
    43   28   44 1
    44   29   30 ar
    45   29   43 1
    46   30   31 ar
@<TRIPOS>SUBSTRUCTURE
     1 ATP         1 GROUP 0 A     ****
@<TRIPOS>MOLECULE
[[[3,4-dihydroxy-5-(6-imino-1~{H}-purin-9-yl)tetrahydrofuran-2-yl]methoxy-oxido-phosphoryl]oxy-oxido-phosphoryl] hydrogen phosphate
   44    46     1     0     0
SMALL
USER_CHARGES

@<TRIPOS>ATOM
      1 PG         -4.6378    7.3945    3.5330 P.3       1 ATP         1.5257
      2 O1G        -4.9589    6.8882    4.9216 O.co2     1 ATP        -0.8737
      3 O2G        -5.7261    7.5637    2.4964 O.co2     1 ATP        -0.8737
      4 O3G        -3.8282    8.8058    3.6698 O.3       1 ATP        -0.7971
      5 PB         -2.6061    6.6739    1.5090 P.3       1 ATP         1.6824
      6 O1B        -3.5484    6.4622    0.3451 O.co2     1 ATP        -0.8925
      7 O2B        -1.7629    7.9249    1.6168 O.co2     1 ATP        -0.8925
      8 O3B        -3.4407    6.4839    2.8993 O.3       1 ATP        -0.8047
      9 PA         -0.4665    4.8322    0.6228 P.3       1 ATP         1.5908
     10 O1A         0.6558    5.8467    0.5864 O.co2     1 ATP        -0.8932
     11 O2A        -1.1281    4.3644   -0.6552 O.co2     1 ATP        -0.8932
     12 O3A        -1.6297    5.3718    1.6355 O.3       1 ATP        -0.8088
     13 O5'         0.0178    3.5131    1.4595 O.3       1 ATP        -0.5646
     14 C5'        -0.8811    2.4285    1.6206 C.3       1 ATP         0.2204
     15 C4'        -0.1994    1.3333    2.4288 C.3       1 ATP         0.0965
     16 O4'        -1.1285    0.2356    2.5840 O.3       1 ATP        -0.3907
     17 C3'         1.0324    0.7610    1.7344 C.3       1 ATP         0.0763
     18 O3'         1.9175    0.2377    2.7247 O.3       1 ATP        -0.5884
     19 C2'         0.4468   -0.3802    0.9263 C.3       1 ATP         0.0784
     20 O2'         1.3993   -1.3703    0.5961 O.3       1 ATP        -0.6085
     21 C1'        -0.6159   -0.9100    1.8769 C.3       1 ATP         0.2186
     22 N9         -1.7127   -1.6108    1.2130 N.pl3     1 ATP        -0.1699
     23 C8         -2.8662   -1.0361    0.7388 C.ar      1 ATP         0.4438
     24 N7         -3.6774   -1.9166    0.1867 N.2       1 ATP        -0.6280
     25 C5         -3.0159   -3.1045    0.3122 C.ar      1 ATP         0.2109
     26 C6         -3.4377   -4.4169   -0.1199 C.ar      1 ATP         0.6180
     27 N6         -4.5720   -4.5691   -0.7080 N.2       1 ATP        -0.8319
     28 N1         -2.4600   -5.3463    0.2071 N.pl3     1 ATP        -0.8664
     29 C2         -1.2595   -5.0554    0.8515 C.ar      1 ATP         0.5952
     30 N3         -0.8555   -3.8803    1.2516 N.2       1 ATP        -0.5599
     31 C4         -1.7946   -2.9457    0.9448 C.ar      1 ATP         0.0076
     32 HOG3       -3.5468    9.2640    2.8494 H         1 ATP         0.4101
     33 H5'1       -1.7771    2.7849    2.1387 H         1 ATP         0.0364
     34 H5'2       -1.1654    2.0541    0.6320 H         1 ATP         0.0364
     35 H4'         0.0403    1.7078    3.4343 H         1 ATP         0.0945
     36 H3'         1.5907    1.4859    1.1353 H         1 ATP         0.0703
     37 HO3'        2.6839   -0.1150    2.2479 H         1 ATP         0.4099
     38 H2'        -0.0017    0.0018    0.0005 H         1 ATP         0.0676
     39 HO2'        2.0953   -0.9375    0.0709 H         1 ATP         0.4291
     40 H1'        -0.1998   -1.6319    2.6178 H         1 ATP         0.0950
     41 H8         -3.0558    0.0252    0.8256 H         1 ATP         0.1135
     42 HN62       -4.7047   -5.5592   -0.9421 H         1 ATP         0.3588
     43 H2         -0.6372   -5.9505    1.0077 H         1 ATP         0.0302
     44 H44        -2.6338   -6.3155   -0.0469 H         1 ATP         0.4215
@<TRIPOS>BOND
     1    1    2 2
     2    1    3 1
     3    1    4 1
     4    1    8 1
     5    4   32 1
     6    5    6 2
     7    5    7 1
     8    5    8 1
     9    5   12 1
    10    9   10 2
    11    9   11 1
    12    9   12 1
    13    9   13 1
    14   13   14 1
    15   14   15 1
    16   14   33 1
    17   14   34 1
    18   15   16 1
    19   15   17 1
    20   15   35 1
    21   16   21 1
    22   17   18 1
    23   17   19 1
    24   17   36 1
    25   18   37 1
    26   19   20 1
    27   19   21 1
    28   19   38 1
    29   20   39 1
    30   21   22 1
    31   21   40 1
    32   22   23 ar
    33   22   31 ar
    34   23   24 ar
    35   23   41 1
    36   24   25 ar
    37   25   26 ar
    38   25   31 ar
    39   26   27 2
    40   26   28 ar
    41   27   42 1
    42   28   29 ar
    43   28   44 1
    44   29   30 ar
    45   29   43 1
    46   30   31 ar
@<TRIPOS>SUBSTRUCTURE
     1 ATP         1 GROUP 0 A     ****
@<TRIPOS>MOLECULE
[[[3,4-dihydroxy-5-(6-imino-1~{H}-purin-9-yl)tetrahydrofuran-2-yl]methoxy-oxido-phosphoryl]oxy-oxido-phosphoryl] hydrogen phosphate
   44    46     1     0     0
SMALL
USER_CHARGES

@<TRIPOS>ATOM
      1 PG          0.6476    7.3062   -3.3522 P.3       1 ATP         1.5257
      2 O1G         1.8790    8.0666   -2.9132 O.co2     1 ATP        -0.8737
      3 O2G        -0.6417    8.0309   -3.6687 O.co2     1 ATP        -0.8737
      4 O3G         1.0438    6.3709   -4.6305 O.3       1 ATP        -0.7971
      5 PB         -0.7639    4.9217   -2.3198 P.3       1 ATP         1.6824
      6 O1B        -2.1472    5.5274   -2.2367 O.co2     1 ATP        -0.8925
      7 O2B        -0.3913    3.9697   -3.4344 O.co2     1 ATP        -0.8925
      8 O3B         0.3383    6.1251   -2.2690 O.3       1 ATP        -0.8047
      9 PA         -0.4665    4.8322    0.6228 P.3       1 ATP         1.5908
     10 O1A        -1.9050    5.1497    0.9698 O.co2     1 ATP        -0.8932
     11 O2A         0.6096    5.8892    0.7429 O.co2     1 ATP        -0.8932
     12 O3A        -0.4148    4.2162   -0.8897 O.3       1 ATP        -0.8088
     13 O5'         0.0178    3.5131    1.4595 O.3       1 ATP        -0.5646
     14 C5'        -0.8811    2.4285    1.6206 C.3       1 ATP         0.2204
     15 C4'        -0.1994    1.3333    2.4288 C.3       1 ATP         0.0965
     16 O4'        -1.1285    0.2356    2.5840 O.3       1 ATP        -0.3907
     17 C3'         1.0324    0.7610    1.7344 C.3       1 ATP         0.0763
     18 O3'         1.9175    0.2377    2.7247 O.3       1 ATP        -0.5884
     19 C2'         0.4468   -0.3802    0.9263 C.3       1 ATP         0.0784
     20 O2'         1.3993   -1.3703    0.5961 O.3       1 ATP        -0.6085
     21 C1'        -0.6159   -0.9100    1.8769 C.3       1 ATP         0.2186
     22 N9         -1.7127   -1.6108    1.2130 N.pl3     1 ATP        -0.1699
     23 C8         -2.8662   -1.0361    0.7388 C.ar      1 ATP         0.4438
     24 N7         -3.6774   -1.9166    0.1867 N.2       1 ATP        -0.6280
     25 C5         -3.0159   -3.1045    0.3122 C.ar      1 ATP         0.2109
     26 C6         -3.4377   -4.4169   -0.1199 C.ar      1 ATP         0.6180
     27 N6         -4.5720   -4.5691   -0.7080 N.2       1 ATP        -0.8319
     28 N1         -2.4600   -5.3463    0.2071 N.pl3     1 ATP        -0.8664
     29 C2         -1.2595   -5.0554    0.8515 C.ar      1 ATP         0.5952
     30 N3         -0.8555   -3.8803    1.2516 N.2       1 ATP        -0.5599
     31 C4         -1.7946   -2.9457    0.9448 C.ar      1 ATP         0.0076
     32 HOG3        0.3462    5.8115   -5.0339 H         1 ATP         0.4101
     33 H5'1       -1.7771    2.7849    2.1387 H         1 ATP         0.0364
     34 H5'2       -1.1654    2.0541    0.6320 H         1 ATP         0.0364
     35 H4'         0.0403    1.7078    3.4343 H         1 ATP         0.0945
     36 H3'         1.5907    1.4859    1.1353 H         1 ATP         0.0703
     37 HO3'        2.6839   -0.1150    2.2479 H         1 ATP         0.4099
     38 H2'        -0.0017    0.0018    0.0005 H         1 ATP         0.0676
     39 HO2'        2.0953   -0.9375    0.0709 H         1 ATP         0.4291
     40 H1'        -0.1998   -1.6319    2.6178 H         1 ATP         0.0950
     41 H8         -3.0558    0.0252    0.8256 H         1 ATP         0.1135
     42 HN62       -4.7047   -5.5592   -0.9421 H         1 ATP         0.3588
     43 H2         -0.6372   -5.9505    1.0077 H         1 ATP         0.0302
     44 H44        -2.6338   -6.3155   -0.0469 H         1 ATP         0.4215
@<TRIPOS>BOND
     1    1    2 2
     2    1    3 1
     3    1    4 1
     4    1    8 1
     5    4   32 1
     6    5    6 2
     7    5    7 1
     8    5    8 1
     9    5   12 1
    10    9   10 2
    11    9   11 1
    12    9   12 1
    13    9   13 1
    14   13   14 1
    15   14   15 1
    16   14   33 1
    17   14   34 1
    18   15   16 1
    19   15   17 1
    20   15   35 1
    21   16   21 1
    22   17   18 1
    23   17   19 1
    24   17   36 1
    25   18   37 1
    26   19   20 1
    27   19   21 1
    28   19   38 1
    29   20   39 1
    30   21   22 1
    31   21   40 1
    32   22   23 ar
    33   22   31 ar
    34   23   24 ar
    35   23   41 1
    36   24   25 ar
    37   25   26 ar
    38   25   31 ar
    39   26   27 2
    40   26   28 ar
    41   27   42 1
    42   28   29 ar
    43   28   44 1
    44   29   30 ar
    45   29   43 1
    46   30   31 ar
@<TRIPOS>SUBSTRUCTURE
     1 ATP         1 GROUP 0 A     ****
@<TRIPOS>MOLECULE
[[[3,4-dihydroxy-5-(6-imino-1~{H}-purin-9-yl)tetrahydrofuran-2-yl]methoxy-oxido-phosphoryl]oxy-oxido-phosphoryl] hydrogen phosphate
   44    46     1     0     0
SMALL
USER_CHARGES

@<TRIPOS>ATOM
      1 PG          4.4451    1.9405   -6.2816 P.3       1 ATP         1.5257
      2 O1G         5.3233    0.7482   -6.5893 O.co2     1 ATP        -0.8737
      3 O2G         4.5378    3.2069   -7.1034 O.co2     1 ATP        -0.8737
      4 O3G         2.8887    1.4473   -6.2630 O.3       1 ATP        -0.7971
      5 PB          5.8926    2.9048   -3.8902 P.3       1 ATP         1.6824
      6 O1B         6.9696    1.8432   -3.8656 O.co2     1 ATP        -0.8925
      7 O2B         6.1837    4.3048   -4.3828 O.co2     1 ATP        -0.8925
      8 O3B         4.6017    2.3220   -4.7024 O.3       1 ATP        -0.8047
      9 PA          5.8655    3.5044   -0.9928 P.3       1 ATP         1.5908
     10 O1A         6.1809    4.9807   -1.1004 O.co2     1 ATP        -0.8932
     11 O2A         6.9316    2.5139   -0.5781 O.co2     1 ATP        -0.8932
     12 O3A         5.2188    3.0011   -2.4064 O.3       1 ATP        -0.8088
     13 O5'         4.5670    3.2937   -0.0211 O.3       1 ATP        -0.5646
     14 C5'         4.0922    1.9801    0.2227 C.3       1 ATP         0.2204
     15 C4'         2.5944    2.0310    0.4653 C.3       1 ATP         0.0965
     16 O4'         1.9327    2.5740   -0.6889 O.3       1 ATP        -0.3907
     17 C3'         1.9685    0.6634    0.6767 C.3       1 ATP         0.0763
     18 O3'         2.1425    0.1975    1.9977 O.3       1 ATP        -0.5884
     19 C2'         0.5176    0.9128    0.3099 C.3       1 ATP         0.0784
     20 O2'        -0.2103    1.4454    1.4152 O.3       1 ATP        -0.6085
     21 C1'         0.6219    1.9765   -0.7844 C.3       1 ATP         0.2186
     22 N9          0.4237    1.4496   -2.1357 N.pl3     1 ATP        -0.1699
     23 C8          1.4069    0.9710   -2.9662 C.ar      1 ATP         0.4438
     24 N7          0.9316    0.5623   -4.1260 N.2       1 ATP        -0.6280
     25 C5         -0.4120    0.7884   -4.0344 C.ar      1 ATP         0.2109
     26 C6         -1.4353    0.5283   -5.0204 C.ar      1 ATP         0.6180
     27 N6         -1.1199    0.0176   -6.1586 N.2       1 ATP        -0.8319
     28 N1         -2.6704    0.9095   -4.5147 N.pl3     1 ATP        -0.8664
     29 C2         -2.8863    1.4571   -3.2520 C.ar      1 ATP         0.5952
     30 N3         -1.9805    1.7017   -2.3442 N.2       1 ATP        -0.5599
     31 C4         -0.7561    1.3381   -2.8112 C.ar      1 ATP         0.0076
     32 HOG3        2.1909    2.1108   -6.0759 H         1 ATP         0.4101
     33 H5'1        4.3179    1.3548   -0.6470 H         1 ATP         0.0364
     34 H5'2        4.6083    1.5737    1.0983 H         1 ATP         0.0364
     35 H4'         2.3752    2.7029    1.3156 H         1 ATP         0.0945
     36 H3'         2.4336   -0.1217   -0.0015 H         1 ATP         0.0703
     37 HO3'        1.7160   -0.6716    2.0397 H         1 ATP         0.4099
     38 H2'         0.0316    0.0155   -0.0339 H         1 ATP         0.0676
     39 HO2'       -0.1608    0.7921    2.1351 H         1 ATP         0.4291
     40 H1'        -0.1474    2.7798   -0.6651 H         1 ATP         0.0950
     41 H8          2.4466    0.9468   -2.6694 H         1 ATP         0.1135
     42 HN62       -1.9661   -0.0965   -6.7275 H         1 ATP         0.3588
     43 H2         -3.9481    1.6825   -3.0660 H         1 ATP         0.0302
     44 H44        -3.4814    0.7753   -5.1133 H         1 ATP         0.4215
@<TRIPOS>BOND
     1    1    2 2
     2    1    3 1
     3    1    4 1
     4    1    8 1
     5    4   32 1
     6    5    6 2
     7    5    7 1
     8    5    8 1
     9    5   12 1
    10    9   10 2
    11    9   11 1
    12    9   12 1
    13    9   13 1
    14   13   14 1
    15   14   15 1
    16   14   33 1
    17   14   34 1
    18   15   16 1
    19   15   17 1
    20   15   35 1
    21   16   21 1
    22   17   18 1
    23   17   19 1
    24   17   36 1
    25   18   37 1
    26   19   20 1
    27   19   21 1
    28   19   38 1
    29   20   39 1
    30   21   22 1
    31   21   40 1
    32   22   23 ar
    33   22   31 ar
    34   23   24 ar
    35   23   41 1
    36   24   25 ar
    37   25   26 ar
    38   25   31 ar
    39   26   27 2
    40   26   28 ar
    41   27   42 1
    42   28   29 ar
    43   28   44 1
    44   29   30 ar
    45   29   43 1
    46   30   31 ar
@<TRIPOS>SUBSTRUCTURE
     1 ATP         1 GROUP 0 A     ****
@<TRIPOS>MOLECULE
[[[3,4-dihydroxy-5-(6-imino-1~{H}-purin-9-yl)tetrahydrofuran-2-yl]methoxy-oxido-phosphoryl]oxy-oxido-phosphoryl] hydrogen phosphate
   44    46     1     0     0
SMALL
USER_CHARGES

@<TRIPOS>ATOM
      1 PG         -2.5868    3.9459   -2.9111 P.3       1 ATP         1.5257
      2 O1G        -1.7078    2.8893   -2.2799 O.co2     1 ATP        -0.8737
      3 O2G        -2.0389    4.8876   -3.9602 O.co2     1 ATP        -0.8737
      4 O3G        -3.9204    3.2201   -3.5116 O.3       1 ATP        -0.7971
      5 PB         -2.6284    5.8461   -0.6459 P.3       1 ATP         1.6824
      6 O1B        -1.7964    6.8669   -1.3896 O.co2     1 ATP        -0.8925
      7 O2B        -3.6957    6.2719    0.3375 O.co2     1 ATP        -0.8925
      8 O3B        -3.2940    4.8232   -1.7304 O.3       1 ATP        -0.8047
      9 PA         -0.5790    5.0299    1.3261 P.3       1 ATP         1.5908
     10 O1A        -1.3655    5.3740    2.5724 O.co2     1 ATP        -0.8932
     11 O2A         0.5324    5.9337    0.8387 O.co2     1 ATP        -0.8932
     12 O3A        -1.6252    4.7920    0.0938 O.3       1 ATP        -0.8088
     13 O5'         0.0178    3.5131    1.4595 O.3       1 ATP        -0.5646
     14 C5'        -0.8811    2.4285    1.6206 C.3       1 ATP         0.2204
     15 C4'        -0.1994    1.3333    2.4288 C.3       1 ATP         0.0965
     16 O4'        -1.1285    0.2356    2.5840 O.3       1 ATP        -0.3907
     17 C3'         1.0324    0.7610    1.7344 C.3       1 ATP         0.0763
     18 O3'         1.9175    0.2377    2.7247 O.3       1 ATP        -0.5884
     19 C2'         0.4468   -0.3802    0.9263 C.3       1 ATP         0.0784
     20 O2'         1.3993   -1.3703    0.5961 O.3       1 ATP        -0.6085
     21 C1'        -0.6159   -0.9100    1.8769 C.3       1 ATP         0.2186
     22 N9         -1.7127   -1.6108    1.2130 N.pl3     1 ATP        -0.1699
     23 C8         -1.7690   -2.9583    0.9549 C.ar      1 ATP         0.4438
     24 N7         -2.8827   -3.3076    0.3418 N.2       1 ATP        -0.6280
     25 C5         -3.5683   -2.1351    0.2017 C.ar      1 ATP         0.2109
     26 C6         -4.8617   -1.9185   -0.4044 C.ar      1 ATP         0.6180
     27 N6         -5.5166   -2.9094   -0.8993 N.2       1 ATP        -0.8319
     28 N1         -5.1837   -0.5701   -0.3344 N.pl3     1 ATP        -0.8664
     29 C2         -4.3821    0.4180    0.2330 C.ar      1 ATP         0.5952
     30 N3         -3.2117    0.2488    0.7860 N.2       1 ATP        -0.5599
     31 C4         -2.8672   -1.0657    0.7327 C.ar      1 ATP         0.0076
     32 HOG3       -4.5944    3.7766   -3.9568 H         1 ATP         0.4101
     33 H5'1       -1.7771    2.7849    2.1387 H         1 ATP         0.0364
     34 H5'2       -1.1654    2.0541    0.6320 H         1 ATP         0.0364
     35 H4'         0.0403    1.7078    3.4343 H         1 ATP         0.0945
     36 H3'         1.5907    1.4859    1.1353 H         1 ATP         0.0703
     37 HO3'        2.6839   -0.1150    2.2479 H         1 ATP         0.4099
     38 H2'        -0.0017    0.0018    0.0005 H         1 ATP         0.0676
     39 HO2'        2.0953   -0.9375    0.0709 H         1 ATP         0.4291
     40 H1'        -0.1998   -1.6319    2.6178 H         1 ATP         0.0950
     41 H8         -0.9697   -3.6300    1.2371 H         1 ATP         0.1135
     42 HN62       -6.4060   -2.5723   -1.2840 H         1 ATP         0.3588
     43 H2         -4.8409    1.4176    0.1757 H         1 ATP         0.0302
     44 H44        -6.0768   -0.2826   -0.7263 H         1 ATP         0.4215
@<TRIPOS>BOND
     1    1    2 2
     2    1    3 1
     3    1    4 1
     4    1    8 1
     5    4   32 1
     6    5    6 2
     7    5    7 1
     8    5    8 1
     9    5   12 1
    10    9   10 2
    11    9   11 1
    12    9   12 1
    13    9   13 1
    14   13   14 1
    15   14   15 1
    16   14   33 1
    17   14   34 1
    18   15   16 1
    19   15   17 1
    20   15   35 1
    21   16   21 1
    22   17   18 1
    23   17   19 1
    24   17   36 1
    25   18   37 1
    26   19   20 1
    27   19   21 1
    28   19   38 1
    29   20   39 1
    30   21   22 1
    31   21   40 1
    32   22   23 ar
    33   22   31 ar
    34   23   24 ar
    35   23   41 1
    36   24   25 ar
    37   25   26 ar
    38   25   31 ar
    39   26   27 2
    40   26   28 ar
    41   27   42 1
    42   28   29 ar
    43   28   44 1
    44   29   30 ar
    45   29   43 1
    46   30   31 ar
@<TRIPOS>SUBSTRUCTURE
     1 ATP         1 GROUP 0 A     ****
@<TRIPOS>MOLECULE
[[[3,4-dihydroxy-5-(6-imino-1~{H}-purin-9-yl)tetrahydrofuran-2-yl]methoxy-oxido-phosphoryl]oxy-oxido-phosphoryl] hydrogen phosphate
   44    46     1     0     0
SMALL
USER_CHARGES

@<TRIPOS>ATOM
      1 PG         -4.7715    5.2028    0.9302 P.3       1 ATP         1.5257
      2 O1G        -4.0680    4.2253    1.8451 O.co2     1 ATP        -0.8737
      3 O2G        -5.5542    4.7187   -0.2701 O.co2     1 ATP        -0.8737
      4 O3G        -5.7444    6.1519    1.8350 O.3       1 ATP        -0.7971
      5 PB         -2.3895    6.1938   -0.5145 P.3       1 ATP         1.6824
      6 O1B        -2.8016    5.5237   -1.8063 O.co2     1 ATP        -0.8925
      7 O2B        -1.6460    7.5109   -0.5178 O.co2     1 ATP        -0.8925
      8 O3B        -3.7040    6.3372    0.4432 O.3       1 ATP        -0.8047
      9 PA         -0.0889    4.4444    0.1193 P.3       1 ATP         1.5908
     10 O1A         0.9661    5.5282    0.1728 O.co2     1 ATP        -0.8932
     11 O2A        -0.2001    3.5318   -1.0825 O.co2     1 ATP        -0.8932
     12 O3A        -1.5516    5.1216    0.3871 O.3       1 ATP        -0.8088
     13 O5'         0.0178    3.5131    1.4595 O.3       1 ATP        -0.5646
     14 C5'        -0.8811    2.4285    1.6206 C.3       1 ATP         0.2204
     15 C4'        -0.1994    1.3333    2.4288 C.3       1 ATP         0.0965
     16 O4'        -1.1285    0.2356    2.5840 O.3       1 ATP        -0.3907
     17 C3'         1.0324    0.7610    1.7344 C.3       1 ATP         0.0763
     18 O3'         1.9175    0.2377    2.7247 O.3       1 ATP        -0.5884
     19 C2'         0.4468   -0.3802    0.9263 C.3       1 ATP         0.0784
     20 O2'         1.3993   -1.3703    0.5961 O.3       1 ATP        -0.6085
     21 C1'        -0.6159   -0.9100    1.8769 C.3       1 ATP         0.2186
     22 N9         -1.7127   -1.6108    1.2130 N.pl3     1 ATP        -0.1699
     23 C8         -2.8662   -1.0361    0.7388 C.ar      1 ATP         0.4438
     24 N7         -3.6774   -1.9166    0.1867 N.2       1 ATP        -0.6280
     25 C5         -3.0159   -3.1045    0.3122 C.ar      1 ATP         0.2109
     26 C6         -3.4377   -4.4169   -0.1199 C.ar      1 ATP         0.6180
     27 N6         -4.5720   -4.5691   -0.7080 N.2       1 ATP        -0.8319
     28 N1         -2.4600   -5.3463    0.2071 N.pl3     1 ATP        -0.8664
     29 C2         -1.2595   -5.0554    0.8515 C.ar      1 ATP         0.5952
     30 N3         -0.8555   -3.8803    1.2516 N.2       1 ATP        -0.5599
     31 C4         -1.7946   -2.9457    0.9448 C.ar      1 ATP         0.0076
     32 HOG3       -6.2736    6.8433    1.3832 H         1 ATP         0.4101
     33 H5'1       -1.7771    2.7849    2.1387 H         1 ATP         0.0364
     34 H5'2       -1.1654    2.0541    0.6320 H         1 ATP         0.0364
     35 H4'         0.0403    1.7078    3.4343 H         1 ATP         0.0945
     36 H3'         1.5907    1.4859    1.1353 H         1 ATP         0.0703
     37 HO3'        2.6839   -0.1150    2.2479 H         1 ATP         0.4099
     38 H2'        -0.0017    0.0018    0.0005 H         1 ATP         0.0676
     39 HO2'        2.0953   -0.9375    0.0709 H         1 ATP         0.4291
     40 H1'        -0.1998   -1.6319    2.6178 H         1 ATP         0.0950
     41 H8         -3.0558    0.0252    0.8256 H         1 ATP         0.1135
     42 HN62       -4.7047   -5.5592   -0.9421 H         1 ATP         0.3588
     43 H2         -0.6372   -5.9505    1.0077 H         1 ATP         0.0302
     44 H44        -2.6338   -6.3155   -0.0469 H         1 ATP         0.4215
@<TRIPOS>BOND
     1    1    2 2
     2    1    3 1
     3    1    4 1
     4    1    8 1
     5    4   32 1
     6    5    6 2
     7    5    7 1
     8    5    8 1
     9    5   12 1
    10    9   10 2
    11    9   11 1
    12    9   12 1
    13    9   13 1
    14   13   14 1
    15   14   15 1
    16   14   33 1
    17   14   34 1
    18   15   16 1
    19   15   17 1
    20   15   35 1
    21   16   21 1
    22   17   18 1
    23   17   19 1
    24   17   36 1
    25   18   37 1
    26   19   20 1
    27   19   21 1
    28   19   38 1
    29   20   39 1
    30   21   22 1
    31   21   40 1
    32   22   23 ar
    33   22   31 ar
    34   23   24 ar
    35   23   41 1
    36   24   25 ar
    37   25   26 ar
    38   25   31 ar
    39   26   27 2
    40   26   28 ar
    41   27   42 1
    42   28   29 ar
    43   28   44 1
    44   29   30 ar
    45   29   43 1
    46   30   31 ar
@<TRIPOS>SUBSTRUCTURE
     1 ATP         1 GROUP 0 A     ****
@<TRIPOS>MOLECULE
[[[3,4-dihydroxy-5-(6-imino-1~{H}-purin-9-yl)tetrahydrofuran-2-yl]methoxy-oxido-phosphoryl]oxy-oxido-phosphoryl] hydrogen phosphate
   44    46     1     0     0
SMALL
USER_CHARGES

@<TRIPOS>ATOM
      1 PG          2.5149    5.7029   -3.7276 P.3       1 ATP         1.5257
      2 O1G         1.4542    6.4211   -4.5317 O.co2     1 ATP        -0.8737
      3 O2G         3.5230    4.7995   -4.4023 O.co2     1 ATP        -0.8737
      4 O3G         3.3227    6.8047   -2.8336 O.3       1 ATP        -0.7971
      5 PB          0.7922    3.5943   -2.5744 P.3       1 ATP         1.6824
      6 O1B        -0.5079    4.0232   -3.2171 O.co2     1 ATP        -0.8925
      7 O2B         1.5643    2.4002   -3.0898 O.co2     1 ATP        -0.8925
      8 O3B         1.7960    4.8805   -2.5148 O.3       1 ATP        -0.8047
      9 PA         -0.0889    4.4444    0.1193 P.3       1 ATP         1.5908
     10 O1A        -1.5455    4.6750   -0.2201 O.co2     1 ATP        -0.8932
     11 O2A         0.8625    5.6104    0.2774 O.co2     1 ATP        -0.8932
     12 O3A         0.5468    3.4071   -0.9714 O.3       1 ATP        -0.8088
     13 O5'         0.0178    3.5131    1.4595 O.3       1 ATP        -0.5646
     14 C5'        -0.8811    2.4285    1.6206 C.3       1 ATP         0.2204
     15 C4'        -0.1994    1.3333    2.4288 C.3       1 ATP         0.0965
     16 O4'        -1.1285    0.2356    2.5840 O.3       1 ATP        -0.3907
     17 C3'         1.0324    0.7610    1.7344 C.3       1 ATP         0.0763
     18 O3'         1.9175    0.2377    2.7247 O.3       1 ATP        -0.5884
     19 C2'         0.4468   -0.3802    0.9263 C.3       1 ATP         0.0784
     20 O2'         1.3993   -1.3703    0.5961 O.3       1 ATP        -0.6085
     21 C1'        -0.6159   -0.9100    1.8769 C.3       1 ATP         0.2186
     22 N9         -1.7127   -1.6108    1.2130 N.pl3     1 ATP        -0.1699
     23 C8         -1.7690   -2.9583    0.9549 C.ar      1 ATP         0.4438
     24 N7         -2.8827   -3.3076    0.3418 N.2       1 ATP        -0.6280
     25 C5         -3.5683   -2.1351    0.2017 C.ar      1 ATP         0.2109
     26 C6         -4.8617   -1.9185   -0.4044 C.ar      1 ATP         0.6180
     27 N6         -5.5166   -2.9094   -0.8993 N.2       1 ATP        -0.8319
     28 N1         -5.1837   -0.5701   -0.3344 N.pl3     1 ATP        -0.8664
     29 C2         -4.3821    0.4180    0.2330 C.ar      1 ATP         0.5952
     30 N3         -3.2117    0.2488    0.7860 N.2       1 ATP        -0.5599
     31 C4         -2.8672   -1.0657    0.7327 C.ar      1 ATP         0.0076
     32 HOG3        4.0488    6.4927   -2.2525 H         1 ATP         0.4101
     33 H5'1       -1.7771    2.7849    2.1387 H         1 ATP         0.0364
     34 H5'2       -1.1654    2.0541    0.6320 H         1 ATP         0.0364
     35 H4'         0.0403    1.7078    3.4343 H         1 ATP         0.0945
     36 H3'         1.5907    1.4859    1.1353 H         1 ATP         0.0703
     37 HO3'        2.6839   -0.1150    2.2479 H         1 ATP         0.4099
     38 H2'        -0.0017    0.0018    0.0005 H         1 ATP         0.0676
     39 HO2'        2.0953   -0.9375    0.0709 H         1 ATP         0.4291
     40 H1'        -0.1998   -1.6319    2.6178 H         1 ATP         0.0950
     41 H8         -0.9697   -3.6300    1.2371 H         1 ATP         0.1135
     42 HN62       -6.4060   -2.5723   -1.2840 H         1 ATP         0.3588
     43 H2         -4.8409    1.4176    0.1757 H         1 ATP         0.0302
     44 H44        -6.0768   -0.2826   -0.7263 H         1 ATP         0.4215
@<TRIPOS>BOND
     1    1    2 2
     2    1    3 1
     3    1    4 1
     4    1    8 1
     5    4   32 1
     6    5    6 2
     7    5    7 1
     8    5    8 1
     9    5   12 1
    10    9   10 2
    11    9   11 1
    12    9   12 1
    13    9   13 1
    14   13   14 1
    15   14   15 1
    16   14   33 1
    17   14   34 1
    18   15   16 1
    19   15   17 1
    20   15   35 1
    21   16   21 1
    22   17   18 1
    23   17   19 1
    24   17   36 1
    25   18   37 1
    26   19   20 1
    27   19   21 1
    28   19   38 1
    29   20   39 1
    30   21   22 1
    31   21   40 1
    32   22   23 ar
    33   22   31 ar
    34   23   24 ar
    35   23   41 1
    36   24   25 ar
    37   25   26 ar
    38   25   31 ar
    39   26   27 2
    40   26   28 ar
    41   27   42 1
    42   28   29 ar
    43   28   44 1
    44   29   30 ar
    45   29   43 1
    46   30   31 ar
@<TRIPOS>SUBSTRUCTURE
     1 ATP         1 GROUP 0 A     ****
@<TRIPOS>MOLECULE
[[[3,4-dihydroxy-5-(6-imino-1~{H}-purin-9-yl)tetrahydrofuran-2-yl]methoxy-oxido-phosphoryl]oxy-oxido-phosphoryl] hydrogen phosphate
   44    46     1     0     0
SMALL
USER_CHARGES

@<TRIPOS>ATOM
      1 PG         -1.2229    5.9594   -1.6951 P.3       1 ATP         1.5257
      2 O1G        -1.1170    4.7568   -2.6062 O.co2     1 ATP        -0.8737
      3 O2G        -0.1713    6.2322   -0.6427 O.co2     1 ATP        -0.8737
      4 O3G        -1.3921    7.2958   -2.6177 O.3       1 ATP        -0.7971
      5 PB         -3.3314    4.9239    0.1010 P.3       1 ATP         1.6824
      6 O1B        -4.6637    5.4680    0.5659 O.co2     1 ATP        -0.8925
      7 O2B        -3.2053    3.5168   -0.4391 O.co2     1 ATP        -0.8925
      8 O3B        -2.6932    5.9611   -0.9865 O.3       1 ATP        -0.8047
      9 PA         -2.1561    4.4278    2.7707 P.3       1 ATP         1.5908
     10 O1A        -3.4710    4.6479    3.4867 O.co2     1 ATP        -0.8932
     11 O2A        -0.8475    4.8296    3.4155 O.co2     1 ATP        -0.8932
     12 O3A        -2.2377    5.1262    1.2959 O.3       1 ATP        -0.8088
     13 O5'        -2.0401    2.8620    2.3128 O.3       1 ATP        -0.5646
     14 C5'        -0.8811    2.4285    1.6206 C.3       1 ATP         0.2204
     15 C4'        -0.1994    1.3333    2.4288 C.3       1 ATP         0.0965
     16 O4'        -1.1285    0.2356    2.5840 O.3       1 ATP        -0.3907
     17 C3'         1.0324    0.7610    1.7344 C.3       1 ATP         0.0763
     18 O3'         1.9175    0.2377    2.7247 O.3       1 ATP        -0.5884
     19 C2'         0.4468   -0.3802    0.9263 C.3       1 ATP         0.0784
     20 O2'         1.3993   -1.3703    0.5961 O.3       1 ATP        -0.6085
     21 C1'        -0.6159   -0.9100    1.8769 C.3       1 ATP         0.2186
     22 N9         -1.7127   -1.6108    1.2130 N.pl3     1 ATP        -0.1699
     23 C8         -2.8662   -1.0361    0.7388 C.ar      1 ATP         0.4438
     24 N7         -3.6774   -1.9166    0.1867 N.2       1 ATP        -0.6280
     25 C5         -3.0159   -3.1045    0.3122 C.ar      1 ATP         0.2109
     26 C6         -3.4377   -4.4169   -0.1199 C.ar      1 ATP         0.6180
     27 N6         -4.5720   -4.5691   -0.7080 N.2       1 ATP        -0.8319
     28 N1         -2.4600   -5.3463    0.2071 N.pl3     1 ATP        -0.8664
     29 C2         -1.2595   -5.0554    0.8515 C.ar      1 ATP         0.5952
     30 N3         -0.8555   -3.8803    1.2516 N.2       1 ATP        -0.5599
     31 C4         -1.7946   -2.9457    0.9448 C.ar      1 ATP         0.0076
     32 HOG3       -1.4743    8.1648   -2.1701 H         1 ATP         0.4101
     33 H5'1       -1.1767    2.0502    0.6368 H         1 ATP         0.0364
     34 H5'2       -0.2080    3.2814    1.4876 H         1 ATP         0.0364
     35 H4'         0.0403    1.7078    3.4343 H         1 ATP         0.0945
     36 H3'         1.5907    1.4859    1.1353 H         1 ATP         0.0703
     37 HO3'        2.6839   -0.1150    2.2479 H         1 ATP         0.4099
     38 H2'        -0.0017    0.0018    0.0005 H         1 ATP         0.0676
     39 HO2'        2.0953   -0.9375    0.0709 H         1 ATP         0.4291
     40 H1'        -0.1998   -1.6319    2.6178 H         1 ATP         0.0950
     41 H8         -3.0558    0.0252    0.8256 H         1 ATP         0.1135
     42 HN62       -4.7047   -5.5592   -0.9421 H         1 ATP         0.3588
     43 H2         -0.6372   -5.9505    1.0077 H         1 ATP         0.0302
     44 H44        -2.6338   -6.3155   -0.0469 H         1 ATP         0.4215
@<TRIPOS>BOND
     1    1    2 2
     2    1    3 1
     3    1    4 1
     4    1    8 1
     5    4   32 1
     6    5    6 2
     7    5    7 1
     8    5    8 1
     9    5   12 1
    10    9   10 2
    11    9   11 1
    12    9   12 1
    13    9   13 1
    14   13   14 1
    15   14   15 1
    16   14   33 1
    17   14   34 1
    18   15   16 1
    19   15   17 1
    20   15   35 1
    21   16   21 1
    22   17   18 1
    23   17   19 1
    24   17   36 1
    25   18   37 1
    26   19   20 1
    27   19   21 1
    28   19   38 1
    29   20   39 1
    30   21   22 1
    31   21   40 1
    32   22   23 ar
    33   22   31 ar
    34   23   24 ar
    35   23   41 1
    36   24   25 ar
    37   25   26 ar
    38   25   31 ar
    39   26   27 2
    40   26   28 ar
    41   27   42 1
    42   28   29 ar
    43   28   44 1
    44   29   30 ar
    45   29   43 1
    46   30   31 ar
@<TRIPOS>SUBSTRUCTURE
     1 ATP         1 GROUP 0 A     ****
@<TRIPOS>MOLECULE
[[[3,4-dihydroxy-5-(6-imino-1~{H}-purin-9-yl)tetrahydrofuran-2-yl]methoxy-oxido-phosphoryl]oxy-oxido-phosphoryl] hydrogen phosphate
   44    46     1     0     0
SMALL
USER_CHARGES

@<TRIPOS>ATOM
      1 PG         -1.2121    2.2232   -3.3518 P.3       1 ATP         1.5257
      2 O1G        -2.4341    2.8002   -2.6726 O.co2     1 ATP        -0.8737
      3 O2G        -0.7736    0.8004   -3.0849 O.co2     1 ATP        -0.8737
      4 O3G        -1.3725    2.4224   -4.9644 O.3       1 ATP        -0.7971
      5 PB          0.8421    3.5905   -1.7226 P.3       1 ATP         1.6824
      6 O1B         1.2750    2.3049   -1.0539 O.co2     1 ATP        -0.8925
      7 O2B         1.8330    4.6966   -2.0092 O.co2     1 ATP        -0.8925
      8 O3B         0.0545    3.2223   -3.1046 O.3       1 ATP        -0.8047
      9 PA         -0.4665    4.8322    0.6228 P.3       1 ATP         1.5908
     10 O1A        -1.9050    5.1497    0.9698 O.co2     1 ATP        -0.8932
     11 O2A         0.6096    5.8892    0.7429 O.co2     1 ATP        -0.8932
     12 O3A        -0.4148    4.2162   -0.8897 O.3       1 ATP        -0.8088
     13 O5'         0.0178    3.5131    1.4595 O.3       1 ATP        -0.5646
     14 C5'        -0.8811    2.4285    1.6206 C.3       1 ATP         0.2204
     15 C4'        -0.1994    1.3333    2.4288 C.3       1 ATP         0.0965
     16 O4'        -1.1285    0.2356    2.5840 O.3       1 ATP        -0.3907
     17 C3'         1.0324    0.7610    1.7344 C.3       1 ATP         0.0763
     18 O3'         1.9175    0.2377    2.7247 O.3       1 ATP        -0.5884
     19 C2'         0.4468   -0.3802    0.9263 C.3       1 ATP         0.0784
     20 O2'         1.3993   -1.3703    0.5961 O.3       1 ATP        -0.6085
     21 C1'        -0.6159   -0.9100    1.8769 C.3       1 ATP         0.2186
     22 N9         -1.7127   -1.6108    1.2130 N.pl3     1 ATP        -0.1699
     23 C8         -1.7690   -2.9583    0.9549 C.ar      1 ATP         0.4438
     24 N7         -2.8827   -3.3076    0.3418 N.2       1 ATP        -0.6280
     25 C5         -3.5683   -2.1351    0.2017 C.ar      1 ATP         0.2109
     26 C6         -4.8617   -1.9185   -0.4044 C.ar      1 ATP         0.6180
     27 N6         -5.5166   -2.9094   -0.8993 N.2       1 ATP        -0.8319
     28 N1         -5.1837   -0.5701   -0.3344 N.pl3     1 ATP        -0.8664
     29 C2         -4.3821    0.4180    0.2330 C.ar      1 ATP         0.5952
     30 N3         -3.2117    0.2488    0.7860 N.2       1 ATP        -0.5599
     31 C4         -2.8672   -1.0657    0.7327 C.ar      1 ATP         0.0076
     32 HOG3       -0.6548    2.0970   -5.5487 H         1 ATP         0.4101
     33 H5'1       -1.7771    2.7849    2.1387 H         1 ATP         0.0364
     34 H5'2       -1.1654    2.0541    0.6320 H         1 ATP         0.0364
     35 H4'         0.0403    1.7078    3.4343 H         1 ATP         0.0945
     36 H3'         1.5907    1.4859    1.1353 H         1 ATP         0.0703
     37 HO3'        2.6839   -0.1150    2.2479 H         1 ATP         0.4099
     38 H2'        -0.0017    0.0018    0.0005 H         1 ATP         0.0676
     39 HO2'        2.0953   -0.9375    0.0709 H         1 ATP         0.4291
     40 H1'        -0.1998   -1.6319    2.6178 H         1 ATP         0.0950
     41 H8         -0.9697   -3.6300    1.2371 H         1 ATP         0.1135
     42 HN62       -6.4060   -2.5723   -1.2840 H         1 ATP         0.3588
     43 H2         -4.8409    1.4176    0.1757 H         1 ATP         0.0302
     44 H44        -6.0768   -0.2826   -0.7263 H         1 ATP         0.4215
@<TRIPOS>BOND
     1    1    2 2
     2    1    3 1
     3    1    4 1
     4    1    8 1
     5    4   32 1
     6    5    6 2
     7    5    7 1
     8    5    8 1
     9    5   12 1
    10    9   10 2
    11    9   11 1
    12    9   12 1
    13    9   13 1
    14   13   14 1
    15   14   15 1
    16   14   33 1
    17   14   34 1
    18   15   16 1
    19   15   17 1
    20   15   35 1
    21   16   21 1
    22   17   18 1
    23   17   19 1
    24   17   36 1
    25   18   37 1
    26   19   20 1
    27   19   21 1
    28   19   38 1
    29   20   39 1
    30   21   22 1
    31   21   40 1
    32   22   23 ar
    33   22   31 ar
    34   23   24 ar
    35   23   41 1
    36   24   25 ar
    37   25   26 ar
    38   25   31 ar
    39   26   27 2
    40   26   28 ar
    41   27   42 1
    42   28   29 ar
    43   28   44 1
    44   29   30 ar
    45   29   43 1
    46   30   31 ar
@<TRIPOS>SUBSTRUCTURE
     1 ATP         1 GROUP 0 A     ****
@<TRIPOS>MOLECULE
[[[3,4-dihydroxy-5-(6-imino-1~{H}-purin-9-yl)tetrahydrofuran-2-yl]methoxy-oxido-phosphoryl]oxy-oxido-phosphoryl] hydrogen phosphate
   44    46     1     0     0
SMALL
USER_CHARGES

@<TRIPOS>ATOM
      1 PG          0.3379    8.2848    3.5362 P.3       1 ATP         1.5257
      2 O1G         1.5284    7.6047    4.1747 O.co2     1 ATP        -0.8737
      3 O2G        -0.5821    9.1672    4.3502 O.co2     1 ATP        -0.8737
      4 O3G         0.8579    9.1327    2.2414 O.3       1 ATP        -0.7971
      5 PB         -1.4295    5.9213    3.3516 P.3       1 ATP         1.6824
      6 O1B        -0.4815    4.9134    3.9621 O.co2     1 ATP        -0.8925
      7 O2B        -2.5936    6.4792    4.1397 O.co2     1 ATP        -0.8925
      8 O3B        -0.5571    7.1657    2.7548 O.3       1 ATP        -0.8047
      9 PA         -2.9646    4.0418    1.6587 P.3       1 ATP         1.5908
     10 O1A        -3.0699    3.8298    0.1639 O.co2     1 ATP        -0.8932
     11 O2A        -4.2078    4.1934    2.5079 O.co2     1 ATP        -0.8932
     12 O3A        -1.9910    5.3235    1.9402 O.3       1 ATP        -0.8088
     13 O5'        -2.0401    2.8620    2.3128 O.3       1 ATP        -0.5646
     14 C5'        -0.8811    2.4285    1.6206 C.3       1 ATP         0.2204
     15 C4'        -0.1994    1.3333    2.4288 C.3       1 ATP         0.0965
     16 O4'        -1.1285    0.2356    2.5840 O.3       1 ATP        -0.3907
     17 C3'         1.0324    0.7610    1.7344 C.3       1 ATP         0.0763
     18 O3'         1.9175    0.2377    2.7247 O.3       1 ATP        -0.5884
     19 C2'         0.4468   -0.3802    0.9263 C.3       1 ATP         0.0784
     20 O2'         1.3993   -1.3703    0.5961 O.3       1 ATP        -0.6085
     21 C1'        -0.6159   -0.9100    1.8769 C.3       1 ATP         0.2186
     22 N9         -1.7127   -1.6108    1.2130 N.pl3     1 ATP        -0.1699
     23 C8         -2.0868   -2.9137    1.4327 C.ar      1 ATP         0.4438
     24 N7         -3.1125   -3.2756    0.6878 N.2       1 ATP        -0.6280
     25 C5         -3.4079   -2.1580   -0.0391 C.ar      1 ATP         0.2109
     26 C6         -4.4483   -1.9775   -1.0249 C.ar      1 ATP         0.6180
     27 N6         -5.2418   -2.9492   -1.3113 N.2       1 ATP        -0.8319
     28 N1         -4.3937   -0.6823   -1.5211 N.pl3     1 ATP        -0.8664
     29 C2         -3.4770    0.2901   -1.1271 C.ar      1 ATP         0.5952
     30 N3         -2.5289    0.1525   -0.2402 N.2       1 ATP        -0.5599
     31 C4         -2.5564   -1.1096    0.2655 C.ar      1 ATP         0.0076
     32 HOG3        0.1983    9.6342    1.7162 H         1 ATP         0.4101
     33 H5'1       -1.1767    2.0502    0.6368 H         1 ATP         0.0364
     34 H5'2       -0.2080    3.2814    1.4876 H         1 ATP         0.0364
     35 H4'         0.0403    1.7078    3.4343 H         1 ATP         0.0945
     36 H3'         1.5907    1.4859    1.1353 H         1 ATP         0.0703
     37 HO3'        2.6839   -0.1150    2.2479 H         1 ATP         0.4099
     38 H2'        -0.0017    0.0018    0.0005 H         1 ATP         0.0676
     39 HO2'        0.9369   -2.0558    0.0825 H         1 ATP         0.4291
     40 H1'        -0.1998   -1.6319    2.6178 H         1 ATP         0.0950
     41 H8         -1.5740   -3.5449    2.1457 H         1 ATP         0.1135
     42 HN62       -5.9117   -2.6433   -2.0256 H         1 ATP         0.3588
     43 H2         -3.6225    1.2454   -1.6553 H         1 ATP         0.0302
     44 H44        -5.0794   -0.4231   -2.2258 H         1 ATP         0.4215
@<TRIPOS>BOND
     1    1    2 2
     2    1    3 1
     3    1    4 1
     4    1    8 1
     5    4   32 1
     6    5    6 2
     7    5    7 1
     8    5    8 1
     9    5   12 1
    10    9   10 2
    11    9   11 1
    12    9   12 1
    13    9   13 1
    14   13   14 1
    15   14   15 1
    16   14   33 1
    17   14   34 1
    18   15   16 1
    19   15   17 1
    20   15   35 1
    21   16   21 1
    22   17   18 1
    23   17   19 1
    24   17   36 1
    25   18   37 1
    26   19   20 1
    27   19   21 1
    28   19   38 1
    29   20   39 1
    30   21   22 1
    31   21   40 1
    32   22   23 ar
    33   22   31 ar
    34   23   24 ar
    35   23   41 1
    36   24   25 ar
    37   25   26 ar
    38   25   31 ar
    39   26   27 2
    40   26   28 ar
    41   27   42 1
    42   28   29 ar
    43   28   44 1
    44   29   30 ar
    45   29   43 1
    46   30   31 ar
@<TRIPOS>SUBSTRUCTURE
     1 ATP         1 GROUP 0 A     ****
@<TRIPOS>MOLECULE
[[[3,4-dihydroxy-5-(6-imino-1~{H}-purin-9-yl)tetrahydrofuran-2-yl]methoxy-oxido-phosphoryl]oxy-oxido-phosphoryl] hydrogen phosphate
   44    46     1     0     0
SMALL
USER_CHARGES

@<TRIPOS>ATOM
      1 PG         -3.3241    3.6828   -2.3502 P.3       1 ATP         1.5257
      2 O1G        -2.7930    2.5470   -1.5044 O.co2     1 ATP        -0.8737
      3 O2G        -2.4207    4.4270   -3.3082 O.co2     1 ATP        -0.8737
      4 O3G        -4.6278    3.1491   -3.1756 O.3       1 ATP        -0.7971
      5 PB         -3.4496    5.7424   -0.2322 P.3       1 ATP         1.6824
      6 O1B        -2.3164    6.5408   -0.8373 O.co2     1 ATP        -0.8925
      7 O2B        -4.5889    6.4243    0.4920 O.co2     1 ATP        -0.8925
      8 O3B        -4.0712    4.7626   -1.3808 O.3       1 ATP        -0.8047
      9 PA         -2.0037    4.7528    2.1522 P.3       1 ATP         1.5908
     10 O1A        -2.9381    5.3281    3.1945 O.co2     1 ATP        -0.8932
     11 O2A        -0.6722    5.4096    1.8602 O.co2     1 ATP        -0.8932
     12 O3A        -2.8191    4.5967    0.7449 O.3       1 ATP        -0.8088
     13 O5'        -1.7336    3.1724    2.4750 O.3       1 ATP        -0.5646
     14 C5'        -0.8811    2.4285    1.6206 C.3       1 ATP         0.2204
     15 C4'        -0.1994    1.3333    2.4288 C.3       1 ATP         0.0965
     16 O4'        -1.1285    0.2356    2.5840 O.3       1 ATP        -0.3907
     17 C3'         1.0324    0.7610    1.7344 C.3       1 ATP         0.0763
     18 O3'         1.9175    0.2377    2.7247 O.3       1 ATP        -0.5884
     19 C2'         0.4468   -0.3802    0.9263 C.3       1 ATP         0.0784
     20 O2'         1.3993   -1.3703    0.5961 O.3       1 ATP        -0.6085
     21 C1'        -0.6159   -0.9100    1.8769 C.3       1 ATP         0.2186
     22 N9         -1.7127   -1.6108    1.2130 N.pl3     1 ATP        -0.1699
     23 C8         -2.8662   -1.0361    0.7388 C.ar      1 ATP         0.4438
     24 N7         -3.6774   -1.9166    0.1867 N.2       1 ATP        -0.6280
     25 C5         -3.0159   -3.1045    0.3122 C.ar      1 ATP         0.2109
     26 C6         -3.4377   -4.4169   -0.1199 C.ar      1 ATP         0.6180
     27 N6         -4.5720   -4.5691   -0.7080 N.2       1 ATP        -0.8319
     28 N1         -2.4600   -5.3463    0.2071 N.pl3     1 ATP        -0.8664
     29 C2         -1.2595   -5.0554    0.8515 C.ar      1 ATP         0.5952
     30 N3         -0.8555   -3.8803    1.2516 N.2       1 ATP        -0.5599
     31 C4         -1.7946   -2.9457    0.9448 C.ar      1 ATP         0.0076
     32 HOG3       -5.0894    3.7742   -3.7743 H         1 ATP         0.4101
     33 H5'1       -1.4800    1.9927    0.8146 H         1 ATP         0.0364
     34 H5'2       -0.1367    3.1040    1.1872 H         1 ATP         0.0364
     35 H4'         0.0403    1.7078    3.4343 H         1 ATP         0.0945
     36 H3'         1.5907    1.4859    1.1353 H         1 ATP         0.0703
     37 HO3'        2.1521    0.9800    3.3017 H         1 ATP         0.4099
     38 H2'        -0.0017    0.0018    0.0005 H         1 ATP         0.0676
     39 HO2'        0.9369   -2.0558    0.0825 H         1 ATP         0.4291
     40 H1'        -0.1998   -1.6319    2.6178 H         1 ATP         0.0950
     41 H8         -3.0558    0.0252    0.8256 H         1 ATP         0.1135
     42 HN62       -4.7047   -5.5592   -0.9421 H         1 ATP         0.3588
     43 H2         -0.6372   -5.9505    1.0077 H         1 ATP         0.0302
     44 H44        -2.6338   -6.3155   -0.0469 H         1 ATP         0.4215
@<TRIPOS>BOND
     1    1    2 2
     2    1    3 1
     3    1    4 1
     4    1    8 1
     5    4   32 1
     6    5    6 2
     7    5    7 1
     8    5    8 1
     9    5   12 1
    10    9   10 2
    11    9   11 1
    12    9   12 1
    13    9   13 1
    14   13   14 1
    15   14   15 1
    16   14   33 1
    17   14   34 1
    18   15   16 1
    19   15   17 1
    20   15   35 1
    21   16   21 1
    22   17   18 1
    23   17   19 1
    24   17   36 1
    25   18   37 1
    26   19   20 1
    27   19   21 1
    28   19   38 1
    29   20   39 1
    30   21   22 1
    31   21   40 1
    32   22   23 ar
    33   22   31 ar
    34   23   24 ar
    35   23   41 1
    36   24   25 ar
    37   25   26 ar
    38   25   31 ar
    39   26   27 2
    40   26   28 ar
    41   27   42 1
    42   28   29 ar
    43   28   44 1
    44   29   30 ar
    45   29   43 1
    46   30   31 ar
@<TRIPOS>SUBSTRUCTURE
     1 ATP         1 GROUP 0 A     ****
@<TRIPOS>MOLECULE
[[[3,4-dihydroxy-5-(6-imino-1~{H}-purin-9-yl)tetrahydrofuran-2-yl]methoxy-oxido-phosphoryl]oxy-oxido-phosphoryl] hydrogen phosphate
   44    46     1     0     0
SMALL
USER_CHARGES

@<TRIPOS>ATOM
      1 PG         -2.9085    6.4483    4.4418 P.3       1 ATP         1.5257
      2 O1G        -2.3783    7.8157    4.8112 O.co2     1 ATP        -0.8737
      3 O2G        -2.0660    5.2081    4.6412 O.co2     1 ATP        -0.8737
      4 O3G        -4.3417    6.2276    5.1922 O.3       1 ATP        -0.7971
      5 PB         -2.6061    6.6739    1.5090 P.3       1 ATP         1.6824
      6 O1B        -3.5484    6.4622    0.3451 O.co2     1 ATP        -0.8925
      7 O2B        -1.7629    7.9249    1.6168 O.co2     1 ATP        -0.8925
      8 O3B        -3.4407    6.4839    2.8993 O.3       1 ATP        -0.8047
      9 PA         -0.4665    4.8322    0.6228 P.3       1 ATP         1.5908
     10 O1A         0.6558    5.8467    0.5864 O.co2     1 ATP        -0.8932
     11 O2A        -1.1281    4.3644   -0.6552 O.co2     1 ATP        -0.8932
     12 O3A        -1.6297    5.3718    1.6355 O.3       1 ATP        -0.8088
     13 O5'         0.0178    3.5131    1.4595 O.3       1 ATP        -0.5646
     14 C5'        -0.8811    2.4285    1.6206 C.3       1 ATP         0.2204
     15 C4'        -0.1994    1.3333    2.4288 C.3       1 ATP         0.0965
     16 O4'        -1.1285    0.2356    2.5840 O.3       1 ATP        -0.3907
     17 C3'         1.0324    0.7610    1.7344 C.3       1 ATP         0.0763
     18 O3'         1.9175    0.2377    2.7247 O.3       1 ATP        -0.5884
     19 C2'         0.4468   -0.3802    0.9263 C.3       1 ATP         0.0784
     20 O2'         1.3993   -1.3703    0.5961 O.3       1 ATP        -0.6085
     21 C1'        -0.6159   -0.9100    1.8769 C.3       1 ATP         0.2186
     22 N9         -1.7127   -1.6108    1.2130 N.pl3     1 ATP        -0.1699
     23 C8         -1.7690   -2.9583    0.9549 C.ar      1 ATP         0.4438
     24 N7         -2.8827   -3.3076    0.3418 N.2       1 ATP        -0.6280
     25 C5         -3.5683   -2.1351    0.2017 C.ar      1 ATP         0.2109
     26 C6         -4.8617   -1.9185   -0.4044 C.ar      1 ATP         0.6180
     27 N6         -5.5166   -2.9094   -0.8993 N.2       1 ATP        -0.8319
     28 N1         -5.1837   -0.5701   -0.3344 N.pl3     1 ATP        -0.8664
     29 C2         -4.3821    0.4180    0.2330 C.ar      1 ATP         0.5952
     30 N3         -3.2117    0.2488    0.7860 N.2       1 ATP        -0.5599
     31 C4         -2.8672   -1.0657    0.7327 C.ar      1 ATP         0.0076
     32 HOG3       -4.8168    5.3809    5.0518 H         1 ATP         0.4101
     33 H5'1       -1.7771    2.7849    2.1387 H         1 ATP         0.0364
     34 H5'2       -1.1654    2.0541    0.6320 H         1 ATP         0.0364
     35 H4'         0.0403    1.7078    3.4343 H         1 ATP         0.0945
     36 H3'         1.5907    1.4859    1.1353 H         1 ATP         0.0703
     37 HO3'        2.6839   -0.1150    2.2479 H         1 ATP         0.4099
     38 H2'        -0.0017    0.0018    0.0005 H         1 ATP         0.0676
     39 HO2'        2.0953   -0.9375    0.0709 H         1 ATP         0.4291
     40 H1'        -0.1998   -1.6319    2.6178 H         1 ATP         0.0950
     41 H8         -0.9697   -3.6300    1.2371 H         1 ATP         0.1135
     42 HN62       -6.4060   -2.5723   -1.2840 H         1 ATP         0.3588
     43 H2         -4.8409    1.4176    0.1757 H         1 ATP         0.0302
     44 H44        -6.0768   -0.2826   -0.7263 H         1 ATP         0.4215
@<TRIPOS>BOND
     1    1    2 2
     2    1    3 1
     3    1    4 1
     4    1    8 1
     5    4   32 1
     6    5    6 2
     7    5    7 1
     8    5    8 1
     9    5   12 1
    10    9   10 2
    11    9   11 1
    12    9   12 1
    13    9   13 1
    14   13   14 1
    15   14   15 1
    16   14   33 1
    17   14   34 1
    18   15   16 1
    19   15   17 1
    20   15   35 1
    21   16   21 1
    22   17   18 1
    23   17   19 1
    24   17   36 1
    25   18   37 1
    26   19   20 1
    27   19   21 1
    28   19   38 1
    29   20   39 1
    30   21   22 1
    31   21   40 1
    32   22   23 ar
    33   22   31 ar
    34   23   24 ar
    35   23   41 1
    36   24   25 ar
    37   25   26 ar
    38   25   31 ar
    39   26   27 2
    40   26   28 ar
    41   27   42 1
    42   28   29 ar
    43   28   44 1
    44   29   30 ar
    45   29   43 1
    46   30   31 ar
@<TRIPOS>SUBSTRUCTURE
     1 ATP         1 GROUP 0 A     ****
@<TRIPOS>MOLECULE
[[[3,4-dihydroxy-5-(6-imino-1~{H}-purin-9-yl)tetrahydrofuran-2-yl]methoxy-oxido-phosphoryl]oxy-oxido-phosphoryl] hydrogen phosphate
   44    46     1     0     0
SMALL
USER_CHARGES

@<TRIPOS>ATOM
      1 PG         -4.7715    5.2028    0.9302 P.3       1 ATP         1.5257
      2 O1G        -4.0680    4.2253    1.8451 O.co2     1 ATP        -0.8737
      3 O2G        -5.5542    4.7187   -0.2701 O.co2     1 ATP        -0.8737
      4 O3G        -5.7444    6.1519    1.8350 O.3       1 ATP        -0.7971
      5 PB         -2.3895    6.1938   -0.5145 P.3       1 ATP         1.6824
      6 O1B        -2.8016    5.5237   -1.8063 O.co2     1 ATP        -0.8925
      7 O2B        -1.6460    7.5109   -0.5178 O.co2     1 ATP        -0.8925
      8 O3B        -3.7040    6.3372    0.4432 O.3       1 ATP        -0.8047
      9 PA         -0.0889    4.4444    0.1193 P.3       1 ATP         1.5908
     10 O1A         0.9661    5.5282    0.1728 O.co2     1 ATP        -0.8932
     11 O2A        -0.2001    3.5318   -1.0825 O.co2     1 ATP        -0.8932
     12 O3A        -1.5516    5.1216    0.3871 O.3       1 ATP        -0.8088
     13 O5'         0.0178    3.5131    1.4595 O.3       1 ATP        -0.5646
     14 C5'        -0.8811    2.4285    1.6206 C.3       1 ATP         0.2204
     15 C4'        -0.1994    1.3333    2.4288 C.3       1 ATP         0.0965
     16 O4'        -1.1285    0.2356    2.5840 O.3       1 ATP        -0.3907
     17 C3'         1.0324    0.7610    1.7344 C.3       1 ATP         0.0763
     18 O3'         1.9175    0.2377    2.7247 O.3       1 ATP        -0.5884
     19 C2'         0.4468   -0.3802    0.9263 C.3       1 ATP         0.0784
     20 O2'         1.3993   -1.3703    0.5961 O.3       1 ATP        -0.6085
     21 C1'        -0.6159   -0.9100    1.8769 C.3       1 ATP         0.2186
     22 N9         -1.7127   -1.6108    1.2130 N.pl3     1 ATP        -0.1699
     23 C8         -1.7690   -2.9583    0.9549 C.ar      1 ATP         0.4438
     24 N7         -2.8827   -3.3076    0.3418 N.2       1 ATP        -0.6280
     25 C5         -3.5683   -2.1351    0.2017 C.ar      1 ATP         0.2109
     26 C6         -4.8617   -1.9185   -0.4044 C.ar      1 ATP         0.6180
     27 N6         -5.5166   -2.9094   -0.8993 N.2       1 ATP        -0.8319
     28 N1         -5.1837   -0.5701   -0.3344 N.pl3     1 ATP        -0.8664
     29 C2         -4.3821    0.4180    0.2330 C.ar      1 ATP         0.5952
     30 N3         -3.2117    0.2488    0.7860 N.2       1 ATP        -0.5599
     31 C4         -2.8672   -1.0657    0.7327 C.ar      1 ATP         0.0076
     32 HOG3       -6.2736    6.8433    1.3832 H         1 ATP         0.4101
     33 H5'1       -1.7771    2.7849    2.1387 H         1 ATP         0.0364
     34 H5'2       -1.1654    2.0541    0.6320 H         1 ATP         0.0364
     35 H4'         0.0403    1.7078    3.4343 H         1 ATP         0.0945
     36 H3'         1.5907    1.4859    1.1353 H         1 ATP         0.0703
     37 HO3'        2.6839   -0.1150    2.2479 H         1 ATP         0.4099
     38 H2'        -0.0017    0.0018    0.0005 H         1 ATP         0.0676
     39 HO2'        2.0953   -0.9375    0.0709 H         1 ATP         0.4291
     40 H1'        -0.1998   -1.6319    2.6178 H         1 ATP         0.0950
     41 H8         -0.9697   -3.6300    1.2371 H         1 ATP         0.1135
     42 HN62       -6.4060   -2.5723   -1.2840 H         1 ATP         0.3588
     43 H2         -4.8409    1.4176    0.1757 H         1 ATP         0.0302
     44 H44        -6.0768   -0.2826   -0.7263 H         1 ATP         0.4215
@<TRIPOS>BOND
     1    1    2 2
     2    1    3 1
     3    1    4 1
     4    1    8 1
     5    4   32 1
     6    5    6 2
     7    5    7 1
     8    5    8 1
     9    5   12 1
    10    9   10 2
    11    9   11 1
    12    9   12 1
    13    9   13 1
    14   13   14 1
    15   14   15 1
    16   14   33 1
    17   14   34 1
    18   15   16 1
    19   15   17 1
    20   15   35 1
    21   16   21 1
    22   17   18 1
    23   17   19 1
    24   17   36 1
    25   18   37 1
    26   19   20 1
    27   19   21 1
    28   19   38 1
    29   20   39 1
    30   21   22 1
    31   21   40 1
    32   22   23 ar
    33   22   31 ar
    34   23   24 ar
    35   23   41 1
    36   24   25 ar
    37   25   26 ar
    38   25   31 ar
    39   26   27 2
    40   26   28 ar
    41   27   42 1
    42   28   29 ar
    43   28   44 1
    44   29   30 ar
    45   29   43 1
    46   30   31 ar
@<TRIPOS>SUBSTRUCTURE
     1 ATP         1 GROUP 0 A     ****
@<TRIPOS>MOLECULE
[[[3,4-dihydroxy-5-(6-imino-1~{H}-purin-9-yl)tetrahydrofuran-2-yl]methoxy-oxido-phosphoryl]oxy-oxido-phosphoryl] hydrogen phosphate
   44    46     1     0     0
SMALL
USER_CHARGES

@<TRIPOS>ATOM
      1 PG         -6.4473    2.0421   -1.3249 P.3       1 ATP         1.5257
      2 O1G        -6.1188    2.0511   -2.8012 O.co2     1 ATP        -0.8737
      3 O2G        -7.6885    2.7292   -0.8006 O.co2     1 ATP        -0.8737
      4 O3G        -6.4522    0.4946   -0.8041 O.3       1 ATP        -0.7971
      5 PB         -4.4707    4.0626   -0.4565 P.3       1 ATP         1.6824
      6 O1B        -3.8666    4.3487   -1.8132 O.co2     1 ATP        -0.8925
      7 O2B        -5.4404    5.0277    0.1885 O.co2     1 ATP        -0.8925
      8 O3B        -5.1524    2.5794   -0.4893 O.3       1 ATP        -0.8047
      9 PA         -3.3347    3.2338    2.1468 P.3       1 ATP         1.5908
     10 O1A        -3.9081    1.8334    2.1683 O.co2     1 ATP        -0.8932
     11 O2A        -3.9472    4.3334    2.9866 O.co2     1 ATP        -0.8932
     12 O3A        -3.2646    3.7490    0.5978 O.3       1 ATP        -0.8088
     13 O5'        -1.7336    3.1724    2.4750 O.3       1 ATP        -0.5646
     14 C5'        -0.8811    2.4285    1.6206 C.3       1 ATP         0.2204
     15 C4'        -0.1994    1.3333    2.4288 C.3       1 ATP         0.0965
     16 O4'        -1.1285    0.2356    2.5840 O.3       1 ATP        -0.3907
     17 C3'         1.0324    0.7610    1.7344 C.3       1 ATP         0.0763
     18 O3'         1.9175    0.2377    2.7247 O.3       1 ATP        -0.5884
     19 C2'         0.4468   -0.3802    0.9263 C.3       1 ATP         0.0784
     20 O2'         1.3993   -1.3703    0.5961 O.3       1 ATP        -0.6085
     21 C1'        -0.6159   -0.9100    1.8769 C.3       1 ATP         0.2186
     22 N9         -1.7127   -1.6108    1.2130 N.pl3     1 ATP        -0.1699
     23 C8         -2.5485   -1.0808    0.2609 C.ar      1 ATP         0.4438
     24 N7         -3.4476   -1.9486   -0.1593 N.2       1 ATP        -0.6280
     25 C5         -3.1762   -3.0816    0.5530 C.ar      1 ATP         0.2109
     26 C6         -3.8510   -4.3579    0.5006 C.ar      1 ATP         0.6180
     27 N6         -4.8468   -4.5293   -0.2961 N.2       1 ATP        -0.8319
     28 N1         -3.2499   -5.2342    1.3937 N.pl3     1 ATP        -0.8664
     29 C2         -2.1646   -4.9275    2.2116 C.ar      1 ATP         0.5952
     30 N3         -1.5382   -3.7840    2.2778 N.2       1 ATP        -0.5599
     31 C4         -2.1054   -2.9018    1.4120 C.ar      1 ATP         0.0076
     32 HOG3       -6.6503    0.3206    0.1408 H         1 ATP         0.4101
     33 H5'1       -1.4800    1.9927    0.8146 H         1 ATP         0.0364
     34 H5'2       -0.1367    3.1040    1.1872 H         1 ATP         0.0364
     35 H4'         0.0403    1.7078    3.4343 H         1 ATP         0.0945
     36 H3'         1.5907    1.4859    1.1353 H         1 ATP         0.0703
     37 HO3'        2.1521    0.9800    3.3017 H         1 ATP         0.4099
     38 H2'        -0.0017    0.0018    0.0005 H         1 ATP         0.0676
     39 HO2'        2.0953   -0.9375    0.0709 H         1 ATP         0.4291
     40 H1'        -0.1998   -1.6319    2.6178 H         1 ATP         0.0950
     41 H8         -2.4515   -0.0599   -0.0829 H         1 ATP         0.1135
     42 HN62       -5.1990   -5.4882   -0.2005 H         1 ATP         0.3588
     43 H2         -1.8555   -5.7783    2.8388 H         1 ATP         0.0302
     44 H44        -3.6312   -6.1750    1.4526 H         1 ATP         0.4215
@<TRIPOS>BOND
     1    1    2 2
     2    1    3 1
     3    1    4 1
     4    1    8 1
     5    4   32 1
     6    5    6 2
     7    5    7 1
     8    5    8 1
     9    5   12 1
    10    9   10 2
    11    9   11 1
    12    9   12 1
    13    9   13 1
    14   13   14 1
    15   14   15 1
    16   14   33 1
    17   14   34 1
    18   15   16 1
    19   15   17 1
    20   15   35 1
    21   16   21 1
    22   17   18 1
    23   17   19 1
    24   17   36 1
    25   18   37 1
    26   19   20 1
    27   19   21 1
    28   19   38 1
    29   20   39 1
    30   21   22 1
    31   21   40 1
    32   22   23 ar
    33   22   31 ar
    34   23   24 ar
    35   23   41 1
    36   24   25 ar
    37   25   26 ar
    38   25   31 ar
    39   26   27 2
    40   26   28 ar
    41   27   42 1
    42   28   29 ar
    43   28   44 1
    44   29   30 ar
    45   29   43 1
    46   30   31 ar
@<TRIPOS>SUBSTRUCTURE
     1 ATP         1 GROUP 0 A     ****
@<TRIPOS>MOLECULE
[[[3,4-dihydroxy-5-(6-imino-1~{H}-purin-9-yl)tetrahydrofuran-2-yl]methoxy-oxido-phosphoryl]oxy-oxido-phosphoryl] hydrogen phosphate
   44    46     1     0     0
SMALL
USER_CHARGES

@<TRIPOS>ATOM
      1 PG          3.3973    3.0396   -3.4189 P.3       1 ATP         1.5257
      2 O1G         4.5095    4.0645   -3.4297 O.co2     1 ATP        -0.8737
      3 O2G         2.5292    2.8218   -4.6382 O.co2     1 ATP        -0.8737
      4 O3G         4.0219    1.6013   -2.9636 O.3       1 ATP        -0.7971
      5 PB          1.4493    4.5708   -1.8053 P.3       1 ATP         1.6824
      6 O1B         2.2940    5.8068   -1.5903 O.co2     1 ATP        -0.8925
      7 O2B         0.3122    4.5628   -2.8025 O.co2     1 ATP        -0.8925
      8 O3B         2.4370    3.3114   -2.1276 O.3       1 ATP        -0.8047
      9 PA         -0.1844    4.7788    0.6530 P.3       1 ATP         1.5908
     10 O1A        -1.5385    4.8262   -0.0211 O.co2     1 ATP        -0.8932
     11 O2A         0.4501    6.0373    1.2036 O.co2     1 ATP        -0.8932
     12 O3A         0.8819    4.0669   -0.3600 O.3       1 ATP        -0.8088
     13 O5'        -0.2062    3.6557    1.8417 O.3       1 ATP        -0.5646
     14 C5'        -0.8811    2.4285    1.6206 C.3       1 ATP         0.2204
     15 C4'        -0.1994    1.3333    2.4288 C.3       1 ATP         0.0965
     16 O4'        -1.1285    0.2356    2.5840 O.3       1 ATP        -0.3907
     17 C3'         1.0324    0.7610    1.7344 C.3       1 ATP         0.0763
     18 O3'         1.9175    0.2377    2.7247 O.3       1 ATP        -0.5884
     19 C2'         0.4468   -0.3802    0.9263 C.3       1 ATP         0.0784
     20 O2'         1.3993   -1.3703    0.5961 O.3       1 ATP        -0.6085
     21 C1'        -0.6159   -0.9100    1.8769 C.3       1 ATP         0.2186
     22 N9         -1.7127   -1.6108    1.2130 N.pl3     1 ATP        -0.1699
     23 C8         -2.8662   -1.0361    0.7388 C.ar      1 ATP         0.4438
     24 N7         -3.6774   -1.9166    0.1867 N.2       1 ATP        -0.6280
     25 C5         -3.0159   -3.1045    0.3122 C.ar      1 ATP         0.2109
     26 C6         -3.4377   -4.4169   -0.1199 C.ar      1 ATP         0.6180
     27 N6         -4.5720   -4.5691   -0.7080 N.2       1 ATP        -0.8319
     28 N1         -2.4600   -5.3463    0.2071 N.pl3     1 ATP        -0.8664
     29 C2         -1.2595   -5.0554    0.8515 C.ar      1 ATP         0.5952
     30 N3         -0.8555   -3.8803    1.2516 N.2       1 ATP        -0.5599
     31 C4         -1.7946   -2.9457    0.9448 C.ar      1 ATP         0.0076
     32 HOG3        3.4208    0.8281   -2.9075 H         1 ATP         0.4101
     33 H5'1       -1.9256    2.5380    1.9293 H         1 ATP         0.0364
     34 H5'2       -0.8474    2.1930    0.5521 H         1 ATP         0.0364
     35 H4'         0.0403    1.7078    3.4343 H         1 ATP         0.0945
     36 H3'         1.5907    1.4859    1.1353 H         1 ATP         0.0703
     37 HO3'        2.6839   -0.1150    2.2479 H         1 ATP         0.4099
     38 H2'        -0.0017    0.0018    0.0005 H         1 ATP         0.0676
     39 HO2'        0.9369   -2.0558    0.0825 H         1 ATP         0.4291
     40 H1'        -0.1998   -1.6319    2.6178 H         1 ATP         0.0950
     41 H8         -3.0558    0.0252    0.8256 H         1 ATP         0.1135
     42 HN62       -4.7047   -5.5592   -0.9421 H         1 ATP         0.3588
     43 H2         -0.6372   -5.9505    1.0077 H         1 ATP         0.0302
     44 H44        -2.6338   -6.3155   -0.0469 H         1 ATP         0.4215
@<TRIPOS>BOND
     1    1    2 2
     2    1    3 1
     3    1    4 1
     4    1    8 1
     5    4   32 1
     6    5    6 2
     7    5    7 1
     8    5    8 1
     9    5   12 1
    10    9   10 2
    11    9   11 1
    12    9   12 1
    13    9   13 1
    14   13   14 1
    15   14   15 1
    16   14   33 1
    17   14   34 1
    18   15   16 1
    19   15   17 1
    20   15   35 1
    21   16   21 1
    22   17   18 1
    23   17   19 1
    24   17   36 1
    25   18   37 1
    26   19   20 1
    27   19   21 1
    28   19   38 1
    29   20   39 1
    30   21   22 1
    31   21   40 1
    32   22   23 ar
    33   22   31 ar
    34   23   24 ar
    35   23   41 1
    36   24   25 ar
    37   25   26 ar
    38   25   31 ar
    39   26   27 2
    40   26   28 ar
    41   27   42 1
    42   28   29 ar
    43   28   44 1
    44   29   30 ar
    45   29   43 1
    46   30   31 ar
@<TRIPOS>SUBSTRUCTURE
     1 ATP         1 GROUP 0 A     ****
@<TRIPOS>MOLECULE
[[[3,4-dihydroxy-5-(6-imino-1~{H}-purin-9-yl)tetrahydrofuran-2-yl]methoxy-oxido-phosphoryl]oxy-oxido-phosphoryl] hydrogen phosphate
   44    46     1     0     0
SMALL
USER_CHARGES

@<TRIPOS>ATOM
      1 PG         -4.4230    5.1029   -2.8754 P.3       1 ATP         1.5257
      2 O1G        -3.8415    6.0226   -3.9258 O.co2     1 ATP        -0.8737
      3 O2G        -5.7367    5.4271   -2.1995 O.co2     1 ATP        -0.8737
      4 O3G        -4.5191    3.5974   -3.5000 O.3       1 ATP        -0.7971
      5 PB         -2.6284    5.8461   -0.6459 P.3       1 ATP         1.6824
      6 O1B        -1.7964    6.8669   -1.3896 O.co2     1 ATP        -0.8925
      7 O2B        -3.6957    6.2719    0.3375 O.co2     1 ATP        -0.8925
      8 O3B        -3.2940    4.8232   -1.7304 O.3       1 ATP        -0.8047
      9 PA         -0.5790    5.0299    1.3261 P.3       1 ATP         1.5908
     10 O1A        -1.3655    5.3740    2.5724 O.co2     1 ATP        -0.8932
     11 O2A         0.5324    5.9337    0.8387 O.co2     1 ATP        -0.8932
     12 O3A        -1.6252    4.7920    0.0938 O.3       1 ATP        -0.8088
     13 O5'         0.0178    3.5131    1.4595 O.3       1 ATP        -0.5646
     14 C5'        -0.8811    2.4285    1.6206 C.3       1 ATP         0.2204
     15 C4'        -0.1994    1.3333    2.4288 C.3       1 ATP         0.0965
     16 O4'        -1.1285    0.2356    2.5840 O.3       1 ATP        -0.3907
     17 C3'         1.0324    0.7610    1.7344 C.3       1 ATP         0.0763
     18 O3'         1.9175    0.2377    2.7247 O.3       1 ATP        -0.5884
     19 C2'         0.4468   -0.3802    0.9263 C.3       1 ATP         0.0784
     20 O2'         1.3993   -1.3703    0.5961 O.3       1 ATP        -0.6085
     21 C1'        -0.6159   -0.9100    1.8769 C.3       1 ATP         0.2186
     22 N9         -1.7127   -1.6108    1.2130 N.pl3     1 ATP        -0.1699
     23 C8         -2.8662   -1.0361    0.7388 C.ar      1 ATP         0.4438
     24 N7         -3.6774   -1.9166    0.1867 N.2       1 ATP        -0.6280
     25 C5         -3.0159   -3.1045    0.3122 C.ar      1 ATP         0.2109
     26 C6         -3.4377   -4.4169   -0.1199 C.ar      1 ATP         0.6180
     27 N6         -4.5720   -4.5691   -0.7080 N.2       1 ATP        -0.8319
     28 N1         -2.4600   -5.3463    0.2071 N.pl3     1 ATP        -0.8664
     29 C2         -1.2595   -5.0554    0.8515 C.ar      1 ATP         0.5952
     30 N3         -0.8555   -3.8803    1.2516 N.2       1 ATP        -0.5599
     31 C4         -1.7946   -2.9457    0.9448 C.ar      1 ATP         0.0076
     32 HOG3       -4.8794    2.8800   -2.9361 H         1 ATP         0.4101
     33 H5'1       -1.7771    2.7849    2.1387 H         1 ATP         0.0364
     34 H5'2       -1.1654    2.0541    0.6320 H         1 ATP         0.0364
     35 H4'         0.0403    1.7078    3.4343 H         1 ATP         0.0945
     36 H3'         1.5907    1.4859    1.1353 H         1 ATP         0.0703
     37 HO3'        2.6839   -0.1150    2.2479 H         1 ATP         0.4099
     38 H2'        -0.0017    0.0018    0.0005 H         1 ATP         0.0676
     39 HO2'        2.0953   -0.9375    0.0709 H         1 ATP         0.4291
     40 H1'        -0.1998   -1.6319    2.6178 H         1 ATP         0.0950
     41 H8         -3.0558    0.0252    0.8256 H         1 ATP         0.1135
     42 HN62       -4.7047   -5.5592   -0.9421 H         1 ATP         0.3588
     43 H2         -0.6372   -5.9505    1.0077 H         1 ATP         0.0302
     44 H44        -2.6338   -6.3155   -0.0469 H         1 ATP         0.4215
@<TRIPOS>BOND
     1    1    2 2
     2    1    3 1
     3    1    4 1
     4    1    8 1
     5    4   32 1
     6    5    6 2
     7    5    7 1
     8    5    8 1
     9    5   12 1
    10    9   10 2
    11    9   11 1
    12    9   12 1
    13    9   13 1
    14   13   14 1
    15   14   15 1
    16   14   33 1
    17   14   34 1
    18   15   16 1
    19   15   17 1
    20   15   35 1
    21   16   21 1
    22   17   18 1
    23   17   19 1
    24   17   36 1
    25   18   37 1
    26   19   20 1
    27   19   21 1
    28   19   38 1
    29   20   39 1
    30   21   22 1
    31   21   40 1
    32   22   23 ar
    33   22   31 ar
    34   23   24 ar
    35   23   41 1
    36   24   25 ar
    37   25   26 ar
    38   25   31 ar
    39   26   27 2
    40   26   28 ar
    41   27   42 1
    42   28   29 ar
    43   28   44 1
    44   29   30 ar
    45   29   43 1
    46   30   31 ar
@<TRIPOS>SUBSTRUCTURE
     1 ATP         1 GROUP 0 A     ****
@<TRIPOS>MOLECULE
[[[3,4-dihydroxy-5-(6-imino-1~{H}-purin-9-yl)tetrahydrofuran-2-yl]methoxy-oxido-phosphoryl]oxy-oxido-phosphoryl] hydrogen phosphate
   44    46     1     0     0
SMALL
USER_CHARGES

@<TRIPOS>ATOM
      1 PG         -6.1191    6.9397    0.1517 P.3       1 ATP         1.5257
      2 O1G        -6.8451    6.5369   -1.1124 O.co2     1 ATP        -0.8737
      3 O2G        -5.5657    8.3374    0.3186 O.co2     1 ATP        -0.8737
      4 O3G        -7.0789    6.6061    1.4298 O.3       1 ATP        -0.7971
      5 PB         -3.5625    5.5559   -0.3896 P.3       1 ATP         1.6824
      6 O1B        -3.9367    4.9590   -1.7279 O.co2     1 ATP        -0.8925
      7 O2B        -2.6569    6.7637   -0.2962 O.co2     1 ATP        -0.8925
      8 O3B        -4.9303    5.8613    0.4480 O.3       1 ATP        -0.8047
      9 PA         -2.5400    4.4095    2.1393 P.3       1 ATP         1.5908
     10 O1A        -3.7865    4.6329    2.9680 O.co2     1 ATP        -0.8932
     11 O2A        -1.3370    5.3145    2.2921 O.co2     1 ATP        -0.8932
     12 O3A        -2.9585    4.3736    0.5603 O.3       1 ATP        -0.8088
     13 O5'        -2.0401    2.8620    2.3128 O.3       1 ATP        -0.5646
     14 C5'        -0.8811    2.4285    1.6206 C.3       1 ATP         0.2204
     15 C4'        -0.1994    1.3333    2.4288 C.3       1 ATP         0.0965
     16 O4'        -1.1285    0.2356    2.5840 O.3       1 ATP        -0.3907
     17 C3'         1.0324    0.7610    1.7344 C.3       1 ATP         0.0763
     18 O3'         1.9175    0.2377    2.7247 O.3       1 ATP        -0.5884
     19 C2'         0.4468   -0.3802    0.9263 C.3       1 ATP         0.0784
     20 O2'         1.3993   -1.3703    0.5961 O.3       1 ATP        -0.6085
     21 C1'        -0.6159   -0.9100    1.8769 C.3       1 ATP         0.2186
     22 N9         -1.7127   -1.6108    1.2130 N.pl3     1 ATP        -0.1699
     23 C8         -1.7690   -2.9583    0.9549 C.ar      1 ATP         0.4438
     24 N7         -2.8827   -3.3076    0.3418 N.2       1 ATP        -0.6280
     25 C5         -3.5683   -2.1351    0.2017 C.ar      1 ATP         0.2109
     26 C6         -4.8617   -1.9185   -0.4044 C.ar      1 ATP         0.6180
     27 N6         -5.5166   -2.9094   -0.8993 N.2       1 ATP        -0.8319
     28 N1         -5.1837   -0.5701   -0.3344 N.pl3     1 ATP        -0.8664
     29 C2         -4.3821    0.4180    0.2330 C.ar      1 ATP         0.5952
     30 N3         -3.2117    0.2488    0.7860 N.2       1 ATP        -0.5599
     31 C4         -2.8672   -1.0657    0.7327 C.ar      1 ATP         0.0076
     32 HOG3       -6.7467    6.8121    2.3295 H         1 ATP         0.4101
     33 H5'1       -1.1767    2.0502    0.6368 H         1 ATP         0.0364
     34 H5'2       -0.2080    3.2814    1.4876 H         1 ATP         0.0364
     35 H4'         0.0403    1.7078    3.4343 H         1 ATP         0.0945
     36 H3'         1.5907    1.4859    1.1353 H         1 ATP         0.0703
     37 HO3'        2.6839   -0.1150    2.2479 H         1 ATP         0.4099
     38 H2'        -0.0017    0.0018    0.0005 H         1 ATP         0.0676
     39 HO2'        2.0953   -0.9375    0.0709 H         1 ATP         0.4291
     40 H1'        -0.1998   -1.6319    2.6178 H         1 ATP         0.0950
     41 H8         -0.9697   -3.6300    1.2371 H         1 ATP         0.1135
     42 HN62       -6.4060   -2.5723   -1.2840 H         1 ATP         0.3588
     43 H2         -4.8409    1.4176    0.1757 H         1 ATP         0.0302
     44 H44        -6.0768   -0.2826   -0.7263 H         1 ATP         0.4215
@<TRIPOS>BOND
     1    1    2 2
     2    1    3 1
     3    1    4 1
     4    1    8 1
     5    4   32 1
     6    5    6 2
     7    5    7 1
     8    5    8 1
     9    5   12 1
    10    9   10 2
    11    9   11 1
    12    9   12 1
    13    9   13 1
    14   13   14 1
    15   14   15 1
    16   14   33 1
    17   14   34 1
    18   15   16 1
    19   15   17 1
    20   15   35 1
    21   16   21 1
    22   17   18 1
    23   17   19 1
    24   17   36 1
    25   18   37 1
    26   19   20 1
    27   19   21 1
    28   19   38 1
    29   20   39 1
    30   21   22 1
    31   21   40 1
    32   22   23 ar
    33   22   31 ar
    34   23   24 ar
    35   23   41 1
    36   24   25 ar
    37   25   26 ar
    38   25   31 ar
    39   26   27 2
    40   26   28 ar
    41   27   42 1
    42   28   29 ar
    43   28   44 1
    44   29   30 ar
    45   29   43 1
    46   30   31 ar
@<TRIPOS>SUBSTRUCTURE
     1 ATP         1 GROUP 0 A     ****
@<TRIPOS>MOLECULE
[[[3,4-dihydroxy-5-(6-imino-1~{H}-purin-9-yl)tetrahydrofuran-2-yl]methoxy-oxido-phosphoryl]oxy-oxido-phosphoryl] hydrogen phosphate
   44    46     1     0     0
SMALL
USER_CHARGES

@<TRIPOS>ATOM
      1 PG         -5.6693    3.5218    2.3232 P.3       1 ATP         1.5257
      2 O1G        -5.8078    5.0000    2.6117 O.co2     1 ATP        -0.8737
      3 O2G        -4.4814    2.7380    2.8352 O.co2     1 ATP        -0.8737
      4 O3G        -7.0349    2.7688    2.8070 O.3       1 ATP        -0.7971
      5 PB         -4.8232    3.7367   -0.5019 P.3       1 ATP         1.6824
      6 O1B        -5.3205    3.1164   -1.7886 O.co2     1 ATP        -0.8925
      7 O2B        -4.5777    5.2251   -0.3935 O.co2     1 ATP        -0.8925
      8 O3B        -5.8101    3.2789    0.7154 O.3       1 ATP        -0.8047
      9 PA         -1.9976    2.8867   -0.7222 P.3       1 ATP         1.5908
     10 O1A        -1.3784    4.2667   -0.6708 O.co2     1 ATP        -0.8932
     11 O2A        -2.1191    2.1418   -2.0338 O.co2     1 ATP        -0.8932
     12 O3A        -3.4752    2.9476   -0.0275 O.3       1 ATP        -0.8088
     13 O5'        -1.2434    1.9104    0.3515 O.3       1 ATP        -0.5646
     14 C5'        -0.8811    2.4285    1.6206 C.3       1 ATP         0.2204
     15 C4'        -0.1994    1.3333    2.4288 C.3       1 ATP         0.0965
     16 O4'        -1.1285    0.2356    2.5840 O.3       1 ATP        -0.3907
     17 C3'         1.0324    0.7610    1.7344 C.3       1 ATP         0.0763
     18 O3'         1.9175    0.2377    2.7247 O.3       1 ATP        -0.5884
     19 C2'         0.4468   -0.3802    0.9263 C.3       1 ATP         0.0784
     20 O2'         1.3993   -1.3703    0.5961 O.3       1 ATP        -0.6085
     21 C1'        -0.6159   -0.9100    1.8769 C.3       1 ATP         0.2186
     22 N9         -1.7127   -1.6108    1.2130 N.pl3     1 ATP        -0.1699
     23 C8         -2.8662   -1.0361    0.7388 C.ar      1 ATP         0.4438
     24 N7         -3.6774   -1.9166    0.1867 N.2       1 ATP        -0.6280
     25 C5         -3.0159   -3.1045    0.3122 C.ar      1 ATP         0.2109
     26 C6         -3.4377   -4.4169   -0.1199 C.ar      1 ATP         0.6180
     27 N6         -4.5720   -4.5691   -0.7080 N.2       1 ATP        -0.8319
     28 N1         -2.4600   -5.3463    0.2071 N.pl3     1 ATP        -0.8664
     29 C2         -1.2595   -5.0554    0.8515 C.ar      1 ATP         0.5952
     30 N3         -0.8555   -3.8803    1.2516 N.2       1 ATP        -0.5599
     31 C4         -1.7946   -2.9457    0.9448 C.ar      1 ATP         0.0076
     32 HOG3       -7.1003    1.7975    2.6862 H         1 ATP         0.4101
     33 H5'1       -0.2033    3.2760    1.4769 H         1 ATP         0.0364
     34 H5'2       -1.7841    2.7762    2.1323 H         1 ATP         0.0364
     35 H4'         0.0403    1.7078    3.4343 H         1 ATP         0.0945
     36 H3'         1.5907    1.4859    1.1353 H         1 ATP         0.0703
     37 HO3'        2.6839   -0.1150    2.2479 H         1 ATP         0.4099
     38 H2'        -0.0017    0.0018    0.0005 H         1 ATP         0.0676
     39 HO2'        2.0953   -0.9375    0.0709 H         1 ATP         0.4291
     40 H1'        -0.1998   -1.6319    2.6178 H         1 ATP         0.0950
     41 H8         -3.0558    0.0252    0.8256 H         1 ATP         0.1135
     42 HN62       -4.7047   -5.5592   -0.9421 H         1 ATP         0.3588
     43 H2         -0.6372   -5.9505    1.0077 H         1 ATP         0.0302
     44 H44        -2.6338   -6.3155   -0.0469 H         1 ATP         0.4215
@<TRIPOS>BOND
     1    1    2 2
     2    1    3 1
     3    1    4 1
     4    1    8 1
     5    4   32 1
     6    5    6 2
     7    5    7 1
     8    5    8 1
     9    5   12 1
    10    9   10 2
    11    9   11 1
    12    9   12 1
    13    9   13 1
    14   13   14 1
    15   14   15 1
    16   14   33 1
    17   14   34 1
    18   15   16 1
    19   15   17 1
    20   15   35 1
    21   16   21 1
    22   17   18 1
    23   17   19 1
    24   17   36 1
    25   18   37 1
    26   19   20 1
    27   19   21 1
    28   19   38 1
    29   20   39 1
    30   21   22 1
    31   21   40 1
    32   22   23 ar
    33   22   31 ar
    34   23   24 ar
    35   23   41 1
    36   24   25 ar
    37   25   26 ar
    38   25   31 ar
    39   26   27 2
    40   26   28 ar
    41   27   42 1
    42   28   29 ar
    43   28   44 1
    44   29   30 ar
    45   29   43 1
    46   30   31 ar
@<TRIPOS>SUBSTRUCTURE
     1 ATP         1 GROUP 0 A     ****
@<TRIPOS>MOLECULE
[[[3,4-dihydroxy-5-(6-imino-1~{H}-purin-9-yl)tetrahydrofuran-2-yl]methoxy-oxido-phosphoryl]oxy-oxido-phosphoryl] hydrogen phosphate
   44    46     1     0     0
SMALL
USER_CHARGES

@<TRIPOS>ATOM
      1 PG         -2.1539    8.0999   -0.9255 P.3       1 ATP         1.5257
      2 O1G        -3.1822    9.0362   -0.3309 O.co2     1 ATP        -0.8737
      3 O2G        -2.0160    7.9476   -2.4240 O.co2     1 ATP        -0.8737
      4 O3G        -0.6907    8.4754   -0.3057 O.3       1 ATP        -0.7971
      5 PB         -3.5625    5.5559   -0.3896 P.3       1 ATP         1.6824
      6 O1B        -4.7848    6.1408    0.2824 O.co2     1 ATP        -0.8925
      7 O2B        -3.6175    5.0528   -1.8148 O.co2     1 ATP        -0.8925
      8 O3B        -2.3326    6.6215   -0.2577 O.3       1 ATP        -0.8047
      9 PA         -2.5400    4.4095    2.1393 P.3       1 ATP         1.5908
     10 O1A        -3.7865    4.6329    2.9680 O.co2     1 ATP        -0.8932
     11 O2A        -1.3370    5.3145    2.2921 O.co2     1 ATP        -0.8932
     12 O3A        -2.9585    4.3736    0.5603 O.3       1 ATP        -0.8088
     13 O5'        -2.0401    2.8620    2.3128 O.3       1 ATP        -0.5646
     14 C5'        -0.8811    2.4285    1.6206 C.3       1 ATP         0.2204
     15 C4'        -0.1994    1.3333    2.4288 C.3       1 ATP         0.0965
     16 O4'        -1.1285    0.2356    2.5840 O.3       1 ATP        -0.3907
     17 C3'         1.0324    0.7610    1.7344 C.3       1 ATP         0.0763
     18 O3'         1.9175    0.2377    2.7247 O.3       1 ATP        -0.5884
     19 C2'         0.4468   -0.3802    0.9263 C.3       1 ATP         0.0784
     20 O2'         1.3993   -1.3703    0.5961 O.3       1 ATP        -0.6085
     21 C1'        -0.6159   -0.9100    1.8769 C.3       1 ATP         0.2186
     22 N9         -1.7127   -1.6108    1.2130 N.pl3     1 ATP        -0.1699
     23 C8         -1.7690   -2.9583    0.9549 C.ar      1 ATP         0.4438
     24 N7         -2.8827   -3.3076    0.3418 N.2       1 ATP        -0.6280
     25 C5         -3.5683   -2.1351    0.2017 C.ar      1 ATP         0.2109
     26 C6         -4.8617   -1.9185   -0.4044 C.ar      1 ATP         0.6180
     27 N6         -5.5166   -2.9094   -0.8993 N.2       1 ATP        -0.8319
     28 N1         -5.1837   -0.5701   -0.3344 N.pl3     1 ATP        -0.8664
     29 C2         -4.3821    0.4180    0.2330 C.ar      1 ATP         0.5952
     30 N3         -3.2117    0.2488    0.7860 N.2       1 ATP        -0.5599
     31 C4         -2.8672   -1.0657    0.7327 C.ar      1 ATP         0.0076
     32 HOG3        0.0872    7.9531   -0.5959 H         1 ATP         0.4101
     33 H5'1       -1.1767    2.0502    0.6368 H         1 ATP         0.0364
     34 H5'2       -0.2080    3.2814    1.4876 H         1 ATP         0.0364
     35 H4'         0.0403    1.7078    3.4343 H         1 ATP         0.0945
     36 H3'         1.5907    1.4859    1.1353 H         1 ATP         0.0703
     37 HO3'        2.6839   -0.1150    2.2479 H         1 ATP         0.4099
     38 H2'        -0.0017    0.0018    0.0005 H         1 ATP         0.0676
     39 HO2'        2.0953   -0.9375    0.0709 H         1 ATP         0.4291
     40 H1'        -0.1998   -1.6319    2.6178 H         1 ATP         0.0950
     41 H8         -0.9697   -3.6300    1.2371 H         1 ATP         0.1135
     42 HN62       -6.4060   -2.5723   -1.2840 H         1 ATP         0.3588
     43 H2         -4.8409    1.4176    0.1757 H         1 ATP         0.0302
     44 H44        -6.0768   -0.2826   -0.7263 H         1 ATP         0.4215
@<TRIPOS>BOND
     1    1    2 2
     2    1    3 1
     3    1    4 1
     4    1    8 1
     5    4   32 1
     6    5    6 2
     7    5    7 1
     8    5    8 1
     9    5   12 1
    10    9   10 2
    11    9   11 1
    12    9   12 1
    13    9   13 1
    14   13   14 1
    15   14   15 1
    16   14   33 1
    17   14   34 1
    18   15   16 1
    19   15   17 1
    20   15   35 1
    21   16   21 1
    22   17   18 1
    23   17   19 1
    24   17   36 1
    25   18   37 1
    26   19   20 1
    27   19   21 1
    28   19   38 1
    29   20   39 1
    30   21   22 1
    31   21   40 1
    32   22   23 ar
    33   22   31 ar
    34   23   24 ar
    35   23   41 1
    36   24   25 ar
    37   25   26 ar
    38   25   31 ar
    39   26   27 2
    40   26   28 ar
    41   27   42 1
    42   28   29 ar
    43   28   44 1
    44   29   30 ar
    45   29   43 1
    46   30   31 ar
@<TRIPOS>SUBSTRUCTURE
     1 ATP         1 GROUP 0 A     ****
@<TRIPOS>MOLECULE
[[[3,4-dihydroxy-5-(6-imino-1~{H}-purin-9-yl)tetrahydrofuran-2-yl]methoxy-oxido-phosphoryl]oxy-oxido-phosphoryl] hydrogen phosphate
   44    46     1     0     0
SMALL
USER_CHARGES

@<TRIPOS>ATOM
      1 PG          0.9967    7.7946    5.0491 P.3       1 ATP         1.5257
      2 O1G         1.3784    8.8494    4.0347 O.co2     1 ATP        -0.8737
      3 O2G         2.0430    7.1479    5.9292 O.co2     1 ATP        -0.8737
      4 O3G        -0.1838    8.3958    6.0035 O.3       1 ATP        -0.7971
      5 PB         -1.1961    6.7418    3.3678 P.3       1 ATP         1.6824
      6 O1B        -2.3500    7.2091    4.2267 O.co2     1 ATP        -0.8925
      7 O2B        -0.8308    7.4606    2.0882 O.co2     1 ATP        -0.8925
      8 O3B         0.1379    6.6250    4.3018 O.3       1 ATP        -0.8047
      9 PA         -2.5400    4.4095    2.1393 P.3       1 ATP         1.5908
     10 O1A        -2.3768    4.8335    0.6957 O.co2     1 ATP        -0.8932
     11 O2A        -3.8713    4.5576    2.8432 O.co2     1 ATP        -0.8932
     12 O3A        -1.3978    5.1558    3.0383 O.3       1 ATP        -0.8088
     13 O5'        -2.0401    2.8620    2.3128 O.3       1 ATP        -0.5646
     14 C5'        -0.8811    2.4285    1.6206 C.3       1 ATP         0.2204
     15 C4'        -0.1994    1.3333    2.4288 C.3       1 ATP         0.0965
     16 O4'        -1.1285    0.2356    2.5840 O.3       1 ATP        -0.3907
     17 C3'         1.0324    0.7610    1.7344 C.3       1 ATP         0.0763
     18 O3'         1.9175    0.2377    2.7247 O.3       1 ATP        -0.5884
     19 C2'         0.4468   -0.3802    0.9263 C.3       1 ATP         0.0784
     20 O2'         1.3993   -1.3703    0.5961 O.3       1 ATP        -0.6085
     21 C1'        -0.6159   -0.9100    1.8769 C.3       1 ATP         0.2186
     22 N9         -1.7127   -1.6108    1.2130 N.pl3     1 ATP        -0.1699
     23 C8         -1.7690   -2.9583    0.9549 C.ar      1 ATP         0.4438
     24 N7         -2.8827   -3.3076    0.3418 N.2       1 ATP        -0.6280
     25 C5         -3.5683   -2.1351    0.2017 C.ar      1 ATP         0.2109
     26 C6         -4.8617   -1.9185   -0.4044 C.ar      1 ATP         0.6180
     27 N6         -5.5166   -2.9094   -0.8993 N.2       1 ATP        -0.8319
     28 N1         -5.1837   -0.5701   -0.3344 N.pl3     1 ATP        -0.8664
     29 C2         -4.3821    0.4180    0.2330 C.ar      1 ATP         0.5952
     30 N3         -3.2117    0.2488    0.7860 N.2       1 ATP        -0.5599
     31 C4         -2.8672   -1.0657    0.7327 C.ar      1 ATP         0.0076
     32 HOG3       -0.5421    7.8267    6.7177 H         1 ATP         0.4101
     33 H5'1       -1.1767    2.0502    0.6368 H         1 ATP         0.0364
     34 H5'2       -0.2080    3.2814    1.4876 H         1 ATP         0.0364
     35 H4'         0.0403    1.7078    3.4343 H         1 ATP         0.0945
     36 H3'         1.5907    1.4859    1.1353 H         1 ATP         0.0703
     37 HO3'        2.6839   -0.1150    2.2479 H         1 ATP         0.4099
     38 H2'        -0.0017    0.0018    0.0005 H         1 ATP         0.0676
     39 HO2'        2.0953   -0.9375    0.0709 H         1 ATP         0.4291
     40 H1'        -0.1998   -1.6319    2.6178 H         1 ATP         0.0950
     41 H8         -0.9697   -3.6300    1.2371 H         1 ATP         0.1135
     42 HN62       -6.4060   -2.5723   -1.2840 H         1 ATP         0.3588
     43 H2         -4.8409    1.4176    0.1757 H         1 ATP         0.0302
     44 H44        -6.0768   -0.2826   -0.7263 H         1 ATP         0.4215
@<TRIPOS>BOND
     1    1    2 2
     2    1    3 1
     3    1    4 1
     4    1    8 1
     5    4   32 1
     6    5    6 2
     7    5    7 1
     8    5    8 1
     9    5   12 1
    10    9   10 2
    11    9   11 1
    12    9   12 1
    13    9   13 1
    14   13   14 1
    15   14   15 1
    16   14   33 1
    17   14   34 1
    18   15   16 1
    19   15   17 1
    20   15   35 1
    21   16   21 1
    22   17   18 1
    23   17   19 1
    24   17   36 1
    25   18   37 1
    26   19   20 1
    27   19   21 1
    28   19   38 1
    29   20   39 1
    30   21   22 1
    31   21   40 1
    32   22   23 ar
    33   22   31 ar
    34   23   24 ar
    35   23   41 1
    36   24   25 ar
    37   25   26 ar
    38   25   31 ar
    39   26   27 2
    40   26   28 ar
    41   27   42 1
    42   28   29 ar
    43   28   44 1
    44   29   30 ar
    45   29   43 1
    46   30   31 ar
@<TRIPOS>SUBSTRUCTURE
     1 ATP         1 GROUP 0 A     ****
@<TRIPOS>MOLECULE
[[[3,4-dihydroxy-5-(6-imino-1~{H}-purin-9-yl)tetrahydrofuran-2-yl]methoxy-oxido-phosphoryl]oxy-oxido-phosphoryl] hydrogen phosphate
   44    46     1     0     0
SMALL
USER_CHARGES

@<TRIPOS>ATOM
      1 PG         -5.3253    2.0517   -3.1268 P.3       1 ATP         1.5257
      2 O1G        -6.7925    2.3723   -2.9478 O.co2     1 ATP        -0.8737
      3 O2G        -4.8818    0.6974   -3.6334 O.co2     1 ATP        -0.8737
      4 O3G        -4.6541    3.2033   -4.0699 O.3       1 ATP        -0.7971
      5 PB         -4.5113    3.7495   -0.8468 P.3       1 ATP         1.6824
      6 O1B        -3.8138    4.8314   -1.6409 O.co2     1 ATP        -0.8925
      7 O2B        -5.8878    3.9720   -0.2608 O.co2     1 ATP        -0.8925
      8 O3B        -4.5362    2.3808   -1.7366 O.3       1 ATP        -0.8047
      9 PA         -2.9646    4.0418    1.6587 P.3       1 ATP         1.5908
     10 O1A        -4.1353    4.3308    2.5732 O.co2     1 ATP        -0.8932
     11 O2A        -2.0512    5.1559    1.1958 O.co2     1 ATP        -0.8932
     12 O3A        -3.5115    3.2453    0.3410 O.3       1 ATP        -0.8088
     13 O5'        -2.0401    2.8620    2.3128 O.3       1 ATP        -0.5646
     14 C5'        -0.8811    2.4285    1.6206 C.3       1 ATP         0.2204
     15 C4'        -0.1994    1.3333    2.4288 C.3       1 ATP         0.0965
     16 O4'        -1.1285    0.2356    2.5840 O.3       1 ATP        -0.3907
     17 C3'         1.0324    0.7610    1.7344 C.3       1 ATP         0.0763
     18 O3'         1.9175    0.2377    2.7247 O.3       1 ATP        -0.5884
     19 C2'         0.4468   -0.3802    0.9263 C.3       1 ATP         0.0784
     20 O2'         1.3993   -1.3703    0.5961 O.3       1 ATP        -0.6085
     21 C1'        -0.6159   -0.9100    1.8769 C.3       1 ATP         0.2186
     22 N9         -1.7127   -1.6108    1.2130 N.pl3     1 ATP        -0.1699
     23 C8         -1.5982   -2.7455    0.4481 C.ar      1 ATP         0.4438
     24 N7         -2.7593   -3.1533   -0.0249 N.2       1 ATP        -0.6280
     25 C5         -3.6547   -2.2420    0.4573 C.ar      1 ATP         0.2109
     26 C6         -5.0842   -2.1942    0.2543 C.ar      1 ATP         0.6180
     27 N6         -5.6648   -3.0919   -0.4618 N.2       1 ATP        -0.8319
     28 N1         -5.6087   -1.0978    0.9248 N.pl3     1 ATP        -0.8664
     29 C2         -4.8689   -0.1873    1.6760 C.ar      1 ATP         0.5952
     30 N3         -3.5787   -0.2081    1.8745 N.2       1 ATP        -0.5599
     31 C4         -3.0344   -1.2737    1.2284 C.ar      1 ATP         0.0076
     32 HOG3       -3.6984    3.1359   -4.2804 H         1 ATP         0.4101
     33 H5'1       -1.1767    2.0502    0.6368 H         1 ATP         0.0364
     34 H5'2       -0.2080    3.2814    1.4876 H         1 ATP         0.0364
     35 H4'         0.0403    1.7078    3.4343 H         1 ATP         0.0945
     36 H3'         1.5907    1.4859    1.1353 H         1 ATP         0.0703
     37 HO3'        2.6839   -0.1150    2.2479 H         1 ATP         0.4099
     38 H2'        -0.0017    0.0018    0.0005 H         1 ATP         0.0676
     39 HO2'        2.0953   -0.9375    0.0709 H         1 ATP         0.4291
     40 H1'        -0.1998   -1.6319    2.6178 H         1 ATP         0.0950
     41 H8         -0.6448   -3.2254    0.2735 H         1 ATP         0.1135
     42 HN62       -6.6723   -2.9015   -0.4966 H         1 ATP         0.3588
     43 H2         -5.4961    0.6026    2.1183 H         1 ATP         0.0302
     44 H44        -6.6130   -0.9504    0.8642 H         1 ATP         0.4215
@<TRIPOS>BOND
     1    1    2 2
     2    1    3 1
     3    1    4 1
     4    1    8 1
     5    4   32 1
     6    5    6 2
     7    5    7 1
     8    5    8 1
     9    5   12 1
    10    9   10 2
    11    9   11 1
    12    9   12 1
    13    9   13 1
    14   13   14 1
    15   14   15 1
    16   14   33 1
    17   14   34 1
    18   15   16 1
    19   15   17 1
    20   15   35 1
    21   16   21 1
    22   17   18 1
    23   17   19 1
    24   17   36 1
    25   18   37 1
    26   19   20 1
    27   19   21 1
    28   19   38 1
    29   20   39 1
    30   21   22 1
    31   21   40 1
    32   22   23 ar
    33   22   31 ar
    34   23   24 ar
    35   23   41 1
    36   24   25 ar
    37   25   26 ar
    38   25   31 ar
    39   26   27 2
    40   26   28 ar
    41   27   42 1
    42   28   29 ar
    43   28   44 1
    44   29   30 ar
    45   29   43 1
    46   30   31 ar
@<TRIPOS>SUBSTRUCTURE
     1 ATP         1 GROUP 0 A     ****
@<TRIPOS>MOLECULE
[[[3,4-dihydroxy-5-(6-imino-1~{H}-purin-9-yl)tetrahydrofuran-2-yl]methoxy-oxido-phosphoryl]oxy-oxido-phosphoryl] hydrogen phosphate
   44    46     1     0     0
SMALL
USER_CHARGES

@<TRIPOS>ATOM
      1 PG          2.4810    5.7832    5.7864 P.3       1 ATP         1.5257
      2 O1G         1.9703    6.0982    7.1746 O.co2     1 ATP        -0.8737
      3 O2G         3.1914    6.8340    4.9625 O.co2     1 ATP        -0.8737
      4 O3G         3.4340    4.4601    5.8721 O.3       1 ATP        -0.7971
      5 PB         -0.1155    5.8502    4.3731 P.3       1 ATP         1.6824
      6 O1B        -0.9860    6.1715    5.5675 O.co2     1 ATP        -0.8925
      7 O2B         0.2381    6.9100    3.3537 O.co2     1 ATP        -0.8925
      8 O3B         1.2625    5.1526    4.9024 O.3       1 ATP        -0.8047
      9 PA         -2.1561    4.4278    2.7707 P.3       1 ATP         1.5908
     10 O1A        -2.0925    5.3170    1.5478 O.co2     1 ATP        -0.8932
     11 O2A        -3.2978    4.5484    3.7564 O.co2     1 ATP        -0.8932
     12 O3A        -0.7509    4.5646    3.5932 O.3       1 ATP        -0.8088
     13 O5'        -2.0401    2.8620    2.3128 O.3       1 ATP        -0.5646
     14 C5'        -0.8811    2.4285    1.6206 C.3       1 ATP         0.2204
     15 C4'        -0.1994    1.3333    2.4288 C.3       1 ATP         0.0965
     16 O4'        -1.1285    0.2356    2.5840 O.3       1 ATP        -0.3907
     17 C3'         1.0324    0.7610    1.7344 C.3       1 ATP         0.0763
     18 O3'         1.9175    0.2377    2.7247 O.3       1 ATP        -0.5884
     19 C2'         0.4468   -0.3802    0.9263 C.3       1 ATP         0.0784
     20 O2'         1.3993   -1.3703    0.5961 O.3       1 ATP        -0.6085
     21 C1'        -0.6159   -0.9100    1.8769 C.3       1 ATP         0.2186
     22 N9         -1.7127   -1.6108    1.2130 N.pl3     1 ATP        -0.1699
     23 C8         -2.8662   -1.0361    0.7388 C.ar      1 ATP         0.4438
     24 N7         -3.6774   -1.9166    0.1867 N.2       1 ATP        -0.6280
     25 C5         -3.0159   -3.1045    0.3122 C.ar      1 ATP         0.2109
     26 C6         -3.4377   -4.4169   -0.1199 C.ar      1 ATP         0.6180
     27 N6         -4.5720   -4.5691   -0.7080 N.2       1 ATP        -0.8319
     28 N1         -2.4600   -5.3463    0.2071 N.pl3     1 ATP        -0.8664
     29 C2         -1.2595   -5.0554    0.8515 C.ar      1 ATP         0.5952
     30 N3         -0.8555   -3.8803    1.2516 N.2       1 ATP        -0.5599
     31 C4         -1.7946   -2.9457    0.9448 C.ar      1 ATP         0.0076
     32 HOG3        3.8451    4.1265    5.0463 H         1 ATP         0.4101
     33 H5'1       -1.1767    2.0502    0.6368 H         1 ATP         0.0364
     34 H5'2       -0.2080    3.2814    1.4876 H         1 ATP         0.0364
     35 H4'         0.0403    1.7078    3.4343 H         1 ATP         0.0945
     36 H3'         1.5907    1.4859    1.1353 H         1 ATP         0.0703
     37 HO3'        2.1521    0.9800    3.3017 H         1 ATP         0.4099
     38 H2'        -0.0017    0.0018    0.0005 H         1 ATP         0.0676
     39 HO2'        2.0953   -0.9375    0.0709 H         1 ATP         0.4291
     40 H1'        -0.1998   -1.6319    2.6178 H         1 ATP         0.0950
     41 H8         -3.0558    0.0252    0.8256 H         1 ATP         0.1135
     42 HN62       -4.7047   -5.5592   -0.9421 H         1 ATP         0.3588
     43 H2         -0.6372   -5.9505    1.0077 H         1 ATP         0.0302
     44 H44        -2.6338   -6.3155   -0.0469 H         1 ATP         0.4215
@<TRIPOS>BOND
     1    1    2 2
     2    1    3 1
     3    1    4 1
     4    1    8 1
     5    4   32 1
     6    5    6 2
     7    5    7 1
     8    5    8 1
     9    5   12 1
    10    9   10 2
    11    9   11 1
    12    9   12 1
    13    9   13 1
    14   13   14 1
    15   14   15 1
    16   14   33 1
    17   14   34 1
    18   15   16 1
    19   15   17 1
    20   15   35 1
    21   16   21 1
    22   17   18 1
    23   17   19 1
    24   17   36 1
    25   18   37 1
    26   19   20 1
    27   19   21 1
    28   19   38 1
    29   20   39 1
    30   21   22 1
    31   21   40 1
    32   22   23 ar
    33   22   31 ar
    34   23   24 ar
    35   23   41 1
    36   24   25 ar
    37   25   26 ar
    38   25   31 ar
    39   26   27 2
    40   26   28 ar
    41   27   42 1
    42   28   29 ar
    43   28   44 1
    44   29   30 ar
    45   29   43 1
    46   30   31 ar
@<TRIPOS>SUBSTRUCTURE
     1 ATP         1 GROUP 0 A     ****
@<TRIPOS>MOLECULE
[[[3,4-dihydroxy-5-(6-imino-1~{H}-purin-9-yl)tetrahydrofuran-2-yl]methoxy-oxido-phosphoryl]oxy-oxido-phosphoryl] hydrogen phosphate
   44    46     1     0     0
SMALL
USER_CHARGES

@<TRIPOS>ATOM
      1 PG         -1.4361    7.8533    1.4212 P.3       1 ATP         1.5257
      2 O1G        -0.7127    6.8095    2.2425 O.co2     1 ATP        -0.8737
      3 O2G        -2.4228    8.8020    2.0647 O.co2     1 ATP        -0.8737
      4 O3G        -0.3272    8.7325    0.6068 O.3       1 ATP        -0.7971
      5 PB         -3.3926    6.0601    0.1172 P.3       1 ATP         1.6824
      6 O1B        -4.5549    6.6441    0.8888 O.co2     1 ATP        -0.8925
      7 O2B        -3.5650    5.5606   -1.2999 O.co2     1 ATP        -0.8925
      8 O3B        -2.1550    7.1245    0.1500 O.3       1 ATP        -0.8047
      9 PA         -3.3161    3.4234    1.4576 P.3       1 ATP         1.5908
     10 O1A        -3.5064    2.5741    0.2195 O.co2     1 ATP        -0.8932
     11 O2A        -4.4616    3.6587    2.4178 O.co2     1 ATP        -0.8932
     12 O3A        -2.7135    4.8751    1.0113 O.3       1 ATP        -0.8088
     13 O5'        -2.0401    2.8620    2.3128 O.3       1 ATP        -0.5646
     14 C5'        -0.8811    2.4285    1.6206 C.3       1 ATP         0.2204
     15 C4'        -0.1994    1.3333    2.4288 C.3       1 ATP         0.0965
     16 O4'        -1.1285    0.2356    2.5840 O.3       1 ATP        -0.3907
     17 C3'         1.0324    0.7610    1.7344 C.3       1 ATP         0.0763
     18 O3'         1.9175    0.2377    2.7247 O.3       1 ATP        -0.5884
     19 C2'         0.4468   -0.3802    0.9263 C.3       1 ATP         0.0784
     20 O2'         1.3993   -1.3703    0.5961 O.3       1 ATP        -0.6085
     21 C1'        -0.6159   -0.9100    1.8769 C.3       1 ATP         0.2186
     22 N9         -1.7127   -1.6108    1.2130 N.pl3     1 ATP        -0.1699
     23 C8         -2.5485   -1.0808    0.2609 C.ar      1 ATP         0.4438
     24 N7         -3.4476   -1.9486   -0.1593 N.2       1 ATP        -0.6280
     25 C5         -3.1762   -3.0816    0.5530 C.ar      1 ATP         0.2109
     26 C6         -3.8510   -4.3579    0.5006 C.ar      1 ATP         0.6180
     27 N6         -4.8468   -4.5293   -0.2961 N.2       1 ATP        -0.8319
     28 N1         -3.2499   -5.2342    1.3937 N.pl3     1 ATP        -0.8664
     29 C2         -2.1646   -4.9275    2.2116 C.ar      1 ATP         0.5952
     30 N3         -1.5382   -3.7840    2.2778 N.2       1 ATP        -0.5599
     31 C4         -2.1054   -2.9018    1.4120 C.ar      1 ATP         0.0076
     32 HOG3       -0.6416    9.4562    0.0240 H         1 ATP         0.4101
     33 H5'1       -1.1767    2.0502    0.6368 H         1 ATP         0.0364
     34 H5'2       -0.2080    3.2814    1.4876 H         1 ATP         0.0364
     35 H4'         0.0403    1.7078    3.4343 H         1 ATP         0.0945
     36 H3'         1.5907    1.4859    1.1353 H         1 ATP         0.0703
     37 HO3'        2.6839   -0.1150    2.2479 H         1 ATP         0.4099
     38 H2'        -0.0017    0.0018    0.0005 H         1 ATP         0.0676
     39 HO2'        2.0953   -0.9375    0.0709 H         1 ATP         0.4291
     40 H1'        -0.1998   -1.6319    2.6178 H         1 ATP         0.0950
     41 H8         -2.4515   -0.0599   -0.0829 H         1 ATP         0.1135
     42 HN62       -5.1990   -5.4882   -0.2005 H         1 ATP         0.3588
     43 H2         -1.8555   -5.7783    2.8388 H         1 ATP         0.0302
     44 H44        -3.6312   -6.1750    1.4526 H         1 ATP         0.4215
@<TRIPOS>BOND
     1    1    2 2
     2    1    3 1
     3    1    4 1
     4    1    8 1
     5    4   32 1
     6    5    6 2
     7    5    7 1
     8    5    8 1
     9    5   12 1
    10    9   10 2
    11    9   11 1
    12    9   12 1
    13    9   13 1
    14   13   14 1
    15   14   15 1
    16   14   33 1
    17   14   34 1
    18   15   16 1
    19   15   17 1
    20   15   35 1
    21   16   21 1
    22   17   18 1
    23   17   19 1
    24   17   36 1
    25   18   37 1
    26   19   20 1
    27   19   21 1
    28   19   38 1
    29   20   39 1
    30   21   22 1
    31   21   40 1
    32   22   23 ar
    33   22   31 ar
    34   23   24 ar
    35   23   41 1
    36   24   25 ar
    37   25   26 ar
    38   25   31 ar
    39   26   27 2
    40   26   28 ar
    41   27   42 1
    42   28   29 ar
    43   28   44 1
    44   29   30 ar
    45   29   43 1
    46   30   31 ar
@<TRIPOS>SUBSTRUCTURE
     1 ATP         1 GROUP 0 A     ****
@<TRIPOS>MOLECULE
[[[3,4-dihydroxy-5-(6-imino-1~{H}-purin-9-yl)tetrahydrofuran-2-yl]methoxy-oxido-phosphoryl]oxy-oxido-phosphoryl] hydrogen phosphate
   44    46     1     0     0
SMALL
USER_CHARGES

@<TRIPOS>ATOM
      1 PG         -4.5019    7.0831   -0.7230 P.3       1 ATP         1.5257
      2 O1G        -3.9119    8.3662   -1.2643 O.co2     1 ATP        -0.8737
      3 O2G        -5.7775    7.0963    0.0896 O.co2     1 ATP        -0.8737
      4 O3G        -4.6867    6.0344   -1.9608 O.3       1 ATP        -0.7971
      5 PB         -2.6061    6.6739    1.5090 P.3       1 ATP         1.6824
      6 O1B        -1.7516    7.8996    1.2741 O.co2     1 ATP        -0.8925
      7 O2B        -3.6214    6.6298    2.6292 O.co2     1 ATP        -0.8925
      8 O3B        -3.3517    6.2799    0.1110 O.3       1 ATP        -0.8047
      9 PA         -0.4665    4.8322    0.6228 P.3       1 ATP         1.5908
     10 O1A         0.6558    5.8467    0.5864 O.co2     1 ATP        -0.8932
     11 O2A        -1.1281    4.3644   -0.6552 O.co2     1 ATP        -0.8932
     12 O3A        -1.6297    5.3718    1.6355 O.3       1 ATP        -0.8088
     13 O5'         0.0178    3.5131    1.4595 O.3       1 ATP        -0.5646
     14 C5'        -0.8811    2.4285    1.6206 C.3       1 ATP         0.2204
     15 C4'        -0.1994    1.3333    2.4288 C.3       1 ATP         0.0965
     16 O4'        -1.1285    0.2356    2.5840 O.3       1 ATP        -0.3907
     17 C3'         1.0324    0.7610    1.7344 C.3       1 ATP         0.0763
     18 O3'         1.9175    0.2377    2.7247 O.3       1 ATP        -0.5884
     19 C2'         0.4468   -0.3802    0.9263 C.3       1 ATP         0.0784
     20 O2'         1.3993   -1.3703    0.5961 O.3       1 ATP        -0.6085
     21 C1'        -0.6159   -0.9100    1.8769 C.3       1 ATP         0.2186
     22 N9         -1.7127   -1.6108    1.2130 N.pl3     1 ATP        -0.1699
     23 C8         -1.7690   -2.9583    0.9549 C.ar      1 ATP         0.4438
     24 N7         -2.8827   -3.3076    0.3418 N.2       1 ATP        -0.6280
     25 C5         -3.5683   -2.1351    0.2017 C.ar      1 ATP         0.2109
     26 C6         -4.8617   -1.9185   -0.4044 C.ar      1 ATP         0.6180
     27 N6         -5.5166   -2.9094   -0.8993 N.2       1 ATP        -0.8319
     28 N1         -5.1837   -0.5701   -0.3344 N.pl3     1 ATP        -0.8664
     29 C2         -4.3821    0.4180    0.2330 C.ar      1 ATP         0.5952
     30 N3         -3.2117    0.2488    0.7860 N.2       1 ATP        -0.5599
     31 C4         -2.8672   -1.0657    0.7327 C.ar      1 ATP         0.0076
     32 HOG3       -5.0617    5.1483   -1.7700 H         1 ATP         0.4101
     33 H5'1       -1.7771    2.7849    2.1387 H         1 ATP         0.0364
     34 H5'2       -1.1654    2.0541    0.6320 H         1 ATP         0.0364
     35 H4'         0.0403    1.7078    3.4343 H         1 ATP         0.0945
     36 H3'         1.5907    1.4859    1.1353 H         1 ATP         0.0703
     37 HO3'        2.6839   -0.1150    2.2479 H         1 ATP         0.4099
     38 H2'        -0.0017    0.0018    0.0005 H         1 ATP         0.0676
     39 HO2'        2.0953   -0.9375    0.0709 H         1 ATP         0.4291
     40 H1'        -0.1998   -1.6319    2.6178 H         1 ATP         0.0950
     41 H8         -0.9697   -3.6300    1.2371 H         1 ATP         0.1135
     42 HN62       -6.4060   -2.5723   -1.2840 H         1 ATP         0.3588
     43 H2         -4.8409    1.4176    0.1757 H         1 ATP         0.0302
     44 H44        -6.0768   -0.2826   -0.7263 H         1 ATP         0.4215
@<TRIPOS>BOND
     1    1    2 2
     2    1    3 1
     3    1    4 1
     4    1    8 1
     5    4   32 1
     6    5    6 2
     7    5    7 1
     8    5    8 1
     9    5   12 1
    10    9   10 2
    11    9   11 1
    12    9   12 1
    13    9   13 1
    14   13   14 1
    15   14   15 1
    16   14   33 1
    17   14   34 1
    18   15   16 1
    19   15   17 1
    20   15   35 1
    21   16   21 1
    22   17   18 1
    23   17   19 1
    24   17   36 1
    25   18   37 1
    26   19   20 1
    27   19   21 1
    28   19   38 1
    29   20   39 1
    30   21   22 1
    31   21   40 1
    32   22   23 ar
    33   22   31 ar
    34   23   24 ar
    35   23   41 1
    36   24   25 ar
    37   25   26 ar
    38   25   31 ar
    39   26   27 2
    40   26   28 ar
    41   27   42 1
    42   28   29 ar
    43   28   44 1
    44   29   30 ar
    45   29   43 1
    46   30   31 ar
@<TRIPOS>SUBSTRUCTURE
     1 ATP         1 GROUP 0 A     ****
@<TRIPOS>MOLECULE
[[[3,4-dihydroxy-5-(6-imino-1~{H}-purin-9-yl)tetrahydrofuran-2-yl]methoxy-oxido-phosphoryl]oxy-oxido-phosphoryl] hydrogen phosphate
   44    46     1     0     0
SMALL
USER_CHARGES

@<TRIPOS>ATOM
      1 PG         -3.6327    5.6994   -1.5351 P.3       1 ATP         1.5257
      2 O1G        -4.7962    6.6327   -1.2847 O.co2     1 ATP        -0.8737
      3 O2G        -3.6655    4.2681   -1.0471 O.co2     1 ATP        -0.8737
      4 O3G        -3.3068    5.6944   -3.1350 O.3       1 ATP        -0.7971
      5 PB         -1.7954    6.7817    0.5135 P.3       1 ATP         1.6824
      6 O1B        -0.3643    7.2695    0.4761 O.co2     1 ATP        -0.8925
      7 O2B        -2.8858    7.6018    1.1661 O.co2     1 ATP        -0.8925
      8 O3B        -2.2606    6.4072   -1.0061 O.3       1 ATP        -0.8047
      9 PA         -1.4709    4.7755    2.6641 P.3       1 ATP         1.5908
     10 O1A        -2.5003    5.3468    3.6150 O.co2     1 ATP        -0.8932
     11 O2A         0.0077    4.9865    2.9069 O.co2     1 ATP        -0.8932
     12 O3A        -1.8194    5.2782    1.1490 O.3       1 ATP        -0.8088
     13 O5'        -1.7336    3.1724    2.4750 O.3       1 ATP        -0.5646
     14 C5'        -0.8811    2.4285    1.6206 C.3       1 ATP         0.2204
     15 C4'        -0.1994    1.3333    2.4288 C.3       1 ATP         0.0965
     16 O4'        -1.1285    0.2356    2.5840 O.3       1 ATP        -0.3907
     17 C3'         1.0324    0.7610    1.7344 C.3       1 ATP         0.0763
     18 O3'         1.9175    0.2377    2.7247 O.3       1 ATP        -0.5884
     19 C2'         0.4468   -0.3802    0.9263 C.3       1 ATP         0.0784
     20 O2'         1.3993   -1.3703    0.5961 O.3       1 ATP        -0.6085
     21 C1'        -0.6159   -0.9100    1.8769 C.3       1 ATP         0.2186
     22 N9         -1.7127   -1.6108    1.2130 N.pl3     1 ATP        -0.1699
     23 C8         -2.8662   -1.0361    0.7388 C.ar      1 ATP         0.4438
     24 N7         -3.6774   -1.9166    0.1867 N.2       1 ATP        -0.6280
     25 C5         -3.0159   -3.1045    0.3122 C.ar      1 ATP         0.2109
     26 C6         -3.4377   -4.4169   -0.1199 C.ar      1 ATP         0.6180
     27 N6         -4.5720   -4.5691   -0.7080 N.2       1 ATP        -0.8319
     28 N1         -2.4600   -5.3463    0.2071 N.pl3     1 ATP        -0.8664
     29 C2         -1.2595   -5.0554    0.8515 C.ar      1 ATP         0.5952
     30 N3         -0.8555   -3.8803    1.2516 N.2       1 ATP        -0.5599
     31 C4         -1.7946   -2.9457    0.9448 C.ar      1 ATP         0.0076
     32 HOG3       -2.5714    5.1323   -3.4599 H         1 ATP         0.4101
     33 H5'1       -1.4800    1.9927    0.8146 H         1 ATP         0.0364
     34 H5'2       -0.1367    3.1040    1.1872 H         1 ATP         0.0364
     35 H4'         0.0403    1.7078    3.4343 H         1 ATP         0.0945
     36 H3'         1.5907    1.4859    1.1353 H         1 ATP         0.0703
     37 HO3'        2.6839   -0.1150    2.2479 H         1 ATP         0.4099
     38 H2'        -0.0017    0.0018    0.0005 H         1 ATP         0.0676
     39 HO2'        2.0953   -0.9375    0.0709 H         1 ATP         0.4291
     40 H1'        -0.1998   -1.6319    2.6178 H         1 ATP         0.0950
     41 H8         -3.0558    0.0252    0.8256 H         1 ATP         0.1135
     42 HN62       -4.7047   -5.5592   -0.9421 H         1 ATP         0.3588
     43 H2         -0.6372   -5.9505    1.0077 H         1 ATP         0.0302
     44 H44        -2.6338   -6.3155   -0.0469 H         1 ATP         0.4215
@<TRIPOS>BOND
     1    1    2 2
     2    1    3 1
     3    1    4 1
     4    1    8 1
     5    4   32 1
     6    5    6 2
     7    5    7 1
     8    5    8 1
     9    5   12 1
    10    9   10 2
    11    9   11 1
    12    9   12 1
    13    9   13 1
    14   13   14 1
    15   14   15 1
    16   14   33 1
    17   14   34 1
    18   15   16 1
    19   15   17 1
    20   15   35 1
    21   16   21 1
    22   17   18 1
    23   17   19 1
    24   17   36 1
    25   18   37 1
    26   19   20 1
    27   19   21 1
    28   19   38 1
    29   20   39 1
    30   21   22 1
    31   21   40 1
    32   22   23 ar
    33   22   31 ar
    34   23   24 ar
    35   23   41 1
    36   24   25 ar
    37   25   26 ar
    38   25   31 ar
    39   26   27 2
    40   26   28 ar
    41   27   42 1
    42   28   29 ar
    43   28   44 1
    44   29   30 ar
    45   29   43 1
    46   30   31 ar
@<TRIPOS>SUBSTRUCTURE
     1 ATP         1 GROUP 0 A     ****
@<TRIPOS>MOLECULE
[[[3,4-dihydroxy-5-(6-imino-1~{H}-purin-9-yl)tetrahydrofuran-2-yl]methoxy-oxido-phosphoryl]oxy-oxido-phosphoryl] hydrogen phosphate
   44    46     1     0     0
SMALL
USER_CHARGES

@<TRIPOS>ATOM
      1 PG         -7.2845    4.6588   -0.3711 P.3       1 ATP         1.5257
      2 O1G        -7.0978    5.9200   -1.1848 O.co2     1 ATP        -0.8737
      3 O2G        -8.2000    4.6389    0.8327 O.co2     1 ATP        -0.8737
      4 O3G        -7.7263    3.4522   -1.3785 O.3       1 ATP        -0.7971
      5 PB         -4.5113    3.7495   -0.8468 P.3       1 ATP         1.6824
      6 O1B        -4.8362    2.5725   -1.7394 O.co2     1 ATP        -0.8925
      7 O2B        -3.9719    5.0414   -1.4193 O.co2     1 ATP        -0.8925
      8 O3B        -5.8198    4.0888    0.0688 O.3       1 ATP        -0.8047
      9 PA         -2.9646    4.0418    1.6587 P.3       1 ATP         1.5908
     10 O1A        -4.1353    4.3308    2.5732 O.co2     1 ATP        -0.8932
     11 O2A        -2.0512    5.1559    1.1958 O.co2     1 ATP        -0.8932
     12 O3A        -3.5115    3.2453    0.3410 O.3       1 ATP        -0.8088
     13 O5'        -2.0401    2.8620    2.3128 O.3       1 ATP        -0.5646
     14 C5'        -0.8811    2.4285    1.6206 C.3       1 ATP         0.2204
     15 C4'        -0.1994    1.3333    2.4288 C.3       1 ATP         0.0965
     16 O4'        -1.1285    0.2356    2.5840 O.3       1 ATP        -0.3907
     17 C3'         1.0324    0.7610    1.7344 C.3       1 ATP         0.0763
     18 O3'         1.9175    0.2377    2.7247 O.3       1 ATP        -0.5884
     19 C2'         0.4468   -0.3802    0.9263 C.3       1 ATP         0.0784
     20 O2'         1.3993   -1.3703    0.5961 O.3       1 ATP        -0.6085
     21 C1'        -0.6159   -0.9100    1.8769 C.3       1 ATP         0.2186
     22 N9         -1.7127   -1.6108    1.2130 N.pl3     1 ATP        -0.1699
     23 C8         -2.8662   -1.0361    0.7388 C.ar      1 ATP         0.4438
     24 N7         -3.6774   -1.9166    0.1867 N.2       1 ATP        -0.6280
     25 C5         -3.0159   -3.1045    0.3122 C.ar      1 ATP         0.2109
     26 C6         -3.4377   -4.4169   -0.1199 C.ar      1 ATP         0.6180
     27 N6         -4.5720   -4.5691   -0.7080 N.2       1 ATP        -0.8319
     28 N1         -2.4600   -5.3463    0.2071 N.pl3     1 ATP        -0.8664
     29 C2         -1.2595   -5.0554    0.8515 C.ar      1 ATP         0.5952
     30 N3         -0.8555   -3.8803    1.2516 N.2       1 ATP        -0.5599
     31 C4         -1.7946   -2.9457    0.9448 C.ar      1 ATP         0.0076
     32 HOG3       -7.1170    3.2050   -2.1064 H         1 ATP         0.4101
     33 H5'1       -1.1767    2.0502    0.6368 H         1 ATP         0.0364
     34 H5'2       -0.2080    3.2814    1.4876 H         1 ATP         0.0364
     35 H4'         0.0403    1.7078    3.4343 H         1 ATP         0.0945
     36 H3'         1.5907    1.4859    1.1353 H         1 ATP         0.0703
     37 HO3'        2.1521    0.9800    3.3017 H         1 ATP         0.4099
     38 H2'        -0.0017    0.0018    0.0005 H         1 ATP         0.0676
     39 HO2'        0.9369   -2.0558    0.0825 H         1 ATP         0.4291
     40 H1'        -0.1998   -1.6319    2.6178 H         1 ATP         0.0950
     41 H8         -3.0558    0.0252    0.8256 H         1 ATP         0.1135
     42 HN62       -4.7047   -5.5592   -0.9421 H         1 ATP         0.3588
     43 H2         -0.6372   -5.9505    1.0077 H         1 ATP         0.0302
     44 H44        -2.6338   -6.3155   -0.0469 H         1 ATP         0.4215
@<TRIPOS>BOND
     1    1    2 2
     2    1    3 1
     3    1    4 1
     4    1    8 1
     5    4   32 1
     6    5    6 2
     7    5    7 1
     8    5    8 1
     9    5   12 1
    10    9   10 2
    11    9   11 1
    12    9   12 1
    13    9   13 1
    14   13   14 1
    15   14   15 1
    16   14   33 1
    17   14   34 1
    18   15   16 1
    19   15   17 1
    20   15   35 1
    21   16   21 1
    22   17   18 1
    23   17   19 1
    24   17   36 1
    25   18   37 1
    26   19   20 1
    27   19   21 1
    28   19   38 1
    29   20   39 1
    30   21   22 1
    31   21   40 1
    32   22   23 ar
    33   22   31 ar
    34   23   24 ar
    35   23   41 1
    36   24   25 ar
    37   25   26 ar
    38   25   31 ar
    39   26   27 2
    40   26   28 ar
    41   27   42 1
    42   28   29 ar
    43   28   44 1
    44   29   30 ar
    45   29   43 1
    46   30   31 ar
@<TRIPOS>SUBSTRUCTURE
     1 ATP         1 GROUP 0 A     ****
@<TRIPOS>MOLECULE
[[[3,4-dihydroxy-5-(6-imino-1~{H}-purin-9-yl)tetrahydrofuran-2-yl]methoxy-oxido-phosphoryl]oxy-oxido-phosphoryl] hydrogen phosphate
   44    46     1     0     0
SMALL
USER_CHARGES

@<TRIPOS>ATOM
      1 PG         -0.4866    6.5134   -1.2138 P.3       1 ATP         1.5257
      2 O1G        -1.3515    5.4259   -1.8109 O.co2     1 ATP        -0.8737
      3 O2G         0.9811    6.2751   -0.9367 O.co2     1 ATP        -0.8737
      4 O3G        -0.6292    7.8540   -2.1349 O.3       1 ATP        -0.7971
      5 PB         -1.4590    6.3221    1.5722 P.3       1 ATP         1.6824
      6 O1B        -0.1477    5.7567    2.0702 O.co2     1 ATP        -0.8925
      7 O2B        -2.3057    7.2221    2.4444 O.co2     1 ATP        -0.8925
      8 O3B        -1.1976    7.0713    0.1453 O.3       1 ATP        -0.8047
      9 PA         -3.0798    3.8627    1.8536 P.3       1 ATP         1.5908
     10 O1A        -3.7210    2.9153    0.8628 O.co2     1 ATP        -0.8932
     11 O2A        -3.8819    4.4464    2.9962 O.co2     1 ATP        -0.8932
     12 O3A        -2.3871    5.0930    1.0312 O.3       1 ATP        -0.8088
     13 O5'        -1.7336    3.1724    2.4750 O.3       1 ATP        -0.5646
     14 C5'        -0.8811    2.4285    1.6206 C.3       1 ATP         0.2204
     15 C4'        -0.1994    1.3333    2.4288 C.3       1 ATP         0.0965
     16 O4'        -1.1285    0.2356    2.5840 O.3       1 ATP        -0.3907
     17 C3'         1.0324    0.7610    1.7344 C.3       1 ATP         0.0763
     18 O3'         1.9175    0.2377    2.7247 O.3       1 ATP        -0.5884
     19 C2'         0.4468   -0.3802    0.9263 C.3       1 ATP         0.0784
     20 O2'         1.3993   -1.3703    0.5961 O.3       1 ATP        -0.6085
     21 C1'        -0.6159   -0.9100    1.8769 C.3       1 ATP         0.2186
     22 N9         -1.7127   -1.6108    1.2130 N.pl3     1 ATP        -0.1699
     23 C8         -2.8662   -1.0361    0.7388 C.ar      1 ATP         0.4438
     24 N7         -3.6774   -1.9166    0.1867 N.2       1 ATP        -0.6280
     25 C5         -3.0159   -3.1045    0.3122 C.ar      1 ATP         0.2109
     26 C6         -3.4377   -4.4169   -0.1199 C.ar      1 ATP         0.6180
     27 N6         -4.5720   -4.5691   -0.7080 N.2       1 ATP        -0.8319
     28 N1         -2.4600   -5.3463    0.2071 N.pl3     1 ATP        -0.8664
     29 C2         -1.2595   -5.0554    0.8515 C.ar      1 ATP         0.5952
     30 N3         -0.8555   -3.8803    1.2516 N.2       1 ATP        -0.5599
     31 C4         -1.7946   -2.9457    0.9448 C.ar      1 ATP         0.0076
     32 HOG3       -0.1245    8.6543   -1.8760 H         1 ATP         0.4101
     33 H5'1       -1.4800    1.9927    0.8146 H         1 ATP         0.0364
     34 H5'2       -0.1367    3.1040    1.1872 H         1 ATP         0.0364
     35 H4'         0.0403    1.7078    3.4343 H         1 ATP         0.0945
     36 H3'         1.5907    1.4859    1.1353 H         1 ATP         0.0703
     37 HO3'        2.1521    0.9800    3.3017 H         1 ATP         0.4099
     38 H2'        -0.0017    0.0018    0.0005 H         1 ATP         0.0676
     39 HO2'        2.0953   -0.9375    0.0709 H         1 ATP         0.4291
     40 H1'        -0.1998   -1.6319    2.6178 H         1 ATP         0.0950
     41 H8         -3.0558    0.0252    0.8256 H         1 ATP         0.1135
     42 HN62       -4.7047   -5.5592   -0.9421 H         1 ATP         0.3588
     43 H2         -0.6372   -5.9505    1.0077 H         1 ATP         0.0302
     44 H44        -2.6338   -6.3155   -0.0469 H         1 ATP         0.4215
@<TRIPOS>BOND
     1    1    2 2
     2    1    3 1
     3    1    4 1
     4    1    8 1
     5    4   32 1
     6    5    6 2
     7    5    7 1
     8    5    8 1
     9    5   12 1
    10    9   10 2
    11    9   11 1
    12    9   12 1
    13    9   13 1
    14   13   14 1
    15   14   15 1
    16   14   33 1
    17   14   34 1
    18   15   16 1
    19   15   17 1
    20   15   35 1
    21   16   21 1
    22   17   18 1
    23   17   19 1
    24   17   36 1
    25   18   37 1
    26   19   20 1
    27   19   21 1
    28   19   38 1
    29   20   39 1
    30   21   22 1
    31   21   40 1
    32   22   23 ar
    33   22   31 ar
    34   23   24 ar
    35   23   41 1
    36   24   25 ar
    37   25   26 ar
    38   25   31 ar
    39   26   27 2
    40   26   28 ar
    41   27   42 1
    42   28   29 ar
    43   28   44 1
    44   29   30 ar
    45   29   43 1
    46   30   31 ar
@<TRIPOS>SUBSTRUCTURE
     1 ATP         1 GROUP 0 A     ****
@<TRIPOS>MOLECULE
[[[3,4-dihydroxy-5-(6-imino-1~{H}-purin-9-yl)tetrahydrofuran-2-yl]methoxy-oxido-phosphoryl]oxy-oxido-phosphoryl] hydrogen phosphate
   44    46     1     0     0
SMALL
USER_CHARGES

@<TRIPOS>ATOM
      1 PG         -1.2628    5.8855   -1.7278 P.3       1 ATP         1.5257
      2 O1G        -1.1593    4.4013   -1.4560 O.co2     1 ATP        -0.8737
      3 O2G        -0.0328    6.7657   -1.7151 O.co2     1 ATP        -0.8737
      4 O3G        -2.0389    6.0998   -3.1483 O.3       1 ATP        -0.7971
      5 PB         -2.3698    6.7018    0.8897 P.3       1 ATP         1.6824
      6 O1B        -1.0971    7.4141    1.2902 O.co2     1 ATP        -0.8925
      7 O2B        -3.7238    7.2063    1.3369 O.co2     1 ATP        -0.8925
      8 O3B        -2.3852    6.5306   -0.7339 O.3       1 ATP        -0.8047
      9 PA         -2.1561    4.4278    2.7707 P.3       1 ATP         1.5908
     10 O1A        -3.4710    4.6479    3.4867 O.co2     1 ATP        -0.8932
     11 O2A        -0.8475    4.8296    3.4155 O.co2     1 ATP        -0.8932
     12 O3A        -2.2377    5.1262    1.2959 O.3       1 ATP        -0.8088
     13 O5'        -2.0401    2.8620    2.3128 O.3       1 ATP        -0.5646
     14 C5'        -0.8811    2.4285    1.6206 C.3       1 ATP         0.2204
     15 C4'        -0.1994    1.3333    2.4288 C.3       1 ATP         0.0965
     16 O4'        -1.1285    0.2356    2.5840 O.3       1 ATP        -0.3907
     17 C3'         1.0324    0.7610    1.7344 C.3       1 ATP         0.0763
     18 O3'         1.9175    0.2377    2.7247 O.3       1 ATP        -0.5884
     19 C2'         0.4468   -0.3802    0.9263 C.3       1 ATP         0.0784
     20 O2'         1.3993   -1.3703    0.5961 O.3       1 ATP        -0.6085
     21 C1'        -0.6159   -0.9100    1.8769 C.3       1 ATP         0.2186
     22 N9         -1.7127   -1.6108    1.2130 N.pl3     1 ATP        -0.1699
     23 C8         -1.7690   -2.9583    0.9549 C.ar      1 ATP         0.4438
     24 N7         -2.8827   -3.3076    0.3418 N.2       1 ATP        -0.6280
     25 C5         -3.5683   -2.1351    0.2017 C.ar      1 ATP         0.2109
     26 C6         -4.8617   -1.9185   -0.4044 C.ar      1 ATP         0.6180
     27 N6         -5.5166   -2.9094   -0.8993 N.2       1 ATP        -0.8319
     28 N1         -5.1837   -0.5701   -0.3344 N.pl3     1 ATP        -0.8664
     29 C2         -4.3821    0.4180    0.2330 C.ar      1 ATP         0.5952
     30 N3         -3.2117    0.2488    0.7860 N.2       1 ATP        -0.5599
     31 C4         -2.8672   -1.0657    0.7327 C.ar      1 ATP         0.0076
     32 HOG3       -2.1857    7.0160   -3.4666 H         1 ATP         0.4101
     33 H5'1       -1.1767    2.0502    0.6368 H         1 ATP         0.0364
     34 H5'2       -0.2080    3.2814    1.4876 H         1 ATP         0.0364
     35 H4'         0.0403    1.7078    3.4343 H         1 ATP         0.0945
     36 H3'         1.5907    1.4859    1.1353 H         1 ATP         0.0703
     37 HO3'        2.6839   -0.1150    2.2479 H         1 ATP         0.4099
     38 H2'        -0.0017    0.0018    0.0005 H         1 ATP         0.0676
     39 HO2'        2.0953   -0.9375    0.0709 H         1 ATP         0.4291
     40 H1'        -0.1998   -1.6319    2.6178 H         1 ATP         0.0950
     41 H8         -0.9697   -3.6300    1.2371 H         1 ATP         0.1135
     42 HN62       -6.4060   -2.5723   -1.2840 H         1 ATP         0.3588
     43 H2         -4.8409    1.4176    0.1757 H         1 ATP         0.0302
     44 H44        -6.0768   -0.2826   -0.7263 H         1 ATP         0.4215
@<TRIPOS>BOND
     1    1    2 2
     2    1    3 1
     3    1    4 1
     4    1    8 1
     5    4   32 1
     6    5    6 2
     7    5    7 1
     8    5    8 1
     9    5   12 1
    10    9   10 2
    11    9   11 1
    12    9   12 1
    13    9   13 1
    14   13   14 1
    15   14   15 1
    16   14   33 1
    17   14   34 1
    18   15   16 1
    19   15   17 1
    20   15   35 1
    21   16   21 1
    22   17   18 1
    23   17   19 1
    24   17   36 1
    25   18   37 1
    26   19   20 1
    27   19   21 1
    28   19   38 1
    29   20   39 1
    30   21   22 1
    31   21   40 1
    32   22   23 ar
    33   22   31 ar
    34   23   24 ar
    35   23   41 1
    36   24   25 ar
    37   25   26 ar
    38   25   31 ar
    39   26   27 2
    40   26   28 ar
    41   27   42 1
    42   28   29 ar
    43   28   44 1
    44   29   30 ar
    45   29   43 1
    46   30   31 ar
@<TRIPOS>SUBSTRUCTURE
     1 ATP         1 GROUP 0 A     ****
@<TRIPOS>MOLECULE
[[[3,4-dihydroxy-5-(6-imino-1~{H}-purin-9-yl)tetrahydrofuran-2-yl]methoxy-oxido-phosphoryl]oxy-oxido-phosphoryl] hydrogen phosphate
   44    46     1     0     0
SMALL
USER_CHARGES

@<TRIPOS>ATOM
      1 PG          2.5892    5.8116    3.1238 P.3       1 ATP         1.5257
      2 O1G         2.1449    4.3894    3.3834 O.co2     1 ATP        -0.8737
      3 O2G         2.6240    6.8311    4.2406 O.co2     1 ATP        -0.8737
      4 O3G         4.0571    5.7744    2.4099 O.3       1 ATP        -0.7971
      5 PB          0.1328    6.7663    1.7829 P.3       1 ATP         1.6824
      6 O1B        -0.2383    7.6674    2.9395 O.co2     1 ATP        -0.8925
      7 O2B        -0.1946    7.1477    0.3563 O.co2     1 ATP        -0.8925
      8 O3B         1.7252    6.4193    1.8796 O.3       1 ATP        -0.8047
      9 PA         -2.0037    4.7528    2.1522 P.3       1 ATP         1.5908
     10 O1A        -2.6322    4.8876    0.7821 O.co2     1 ATP        -0.8932
     11 O2A        -2.6544    5.3785    3.3666 O.co2     1 ATP        -0.8932
     12 O3A        -0.4564    5.2719    2.0738 O.3       1 ATP        -0.8088
     13 O5'        -1.7336    3.1724    2.4750 O.3       1 ATP        -0.5646
     14 C5'        -0.8811    2.4285    1.6206 C.3       1 ATP         0.2204
     15 C4'        -0.1994    1.3333    2.4288 C.3       1 ATP         0.0965
     16 O4'        -1.1285    0.2356    2.5840 O.3       1 ATP        -0.3907
     17 C3'         1.0324    0.7610    1.7344 C.3       1 ATP         0.0763
     18 O3'         1.9175    0.2377    2.7247 O.3       1 ATP        -0.5884
     19 C2'         0.4468   -0.3802    0.9263 C.3       1 ATP         0.0784
     20 O2'         1.3993   -1.3703    0.5961 O.3       1 ATP        -0.6085
     21 C1'        -0.6159   -0.9100    1.8769 C.3       1 ATP         0.2186
     22 N9         -1.7127   -1.6108    1.2130 N.pl3     1 ATP        -0.1699
     23 C8         -2.8662   -1.0361    0.7388 C.ar      1 ATP         0.4438
     24 N7         -3.6774   -1.9166    0.1867 N.2       1 ATP        -0.6280
     25 C5         -3.0159   -3.1045    0.3122 C.ar      1 ATP         0.2109
     26 C6         -3.4377   -4.4169   -0.1199 C.ar      1 ATP         0.6180
     27 N6         -4.5720   -4.5691   -0.7080 N.2       1 ATP        -0.8319
     28 N1         -2.4600   -5.3463    0.2071 N.pl3     1 ATP        -0.8664
     29 C2         -1.2595   -5.0554    0.8515 C.ar      1 ATP         0.5952
     30 N3         -0.8555   -3.8803    1.2516 N.2       1 ATP        -0.5599
     31 C4         -1.7946   -2.9457    0.9448 C.ar      1 ATP         0.0076
     32 HOG3        4.4843    6.6259    2.1760 H         1 ATP         0.4101
     33 H5'1       -1.4800    1.9927    0.8146 H         1 ATP         0.0364
     34 H5'2       -0.1367    3.1040    1.1872 H         1 ATP         0.0364
     35 H4'         0.0403    1.7078    3.4343 H         1 ATP         0.0945
     36 H3'         1.5907    1.4859    1.1353 H         1 ATP         0.0703
     37 HO3'        2.1521    0.9800    3.3017 H         1 ATP         0.4099
     38 H2'        -0.0017    0.0018    0.0005 H         1 ATP         0.0676
     39 HO2'        2.0953   -0.9375    0.0709 H         1 ATP         0.4291
     40 H1'        -0.1998   -1.6319    2.6178 H         1 ATP         0.0950
     41 H8         -3.0558    0.0252    0.8256 H         1 ATP         0.1135
     42 HN62       -4.7047   -5.5592   -0.9421 H         1 ATP         0.3588
     43 H2         -0.6372   -5.9505    1.0077 H         1 ATP         0.0302
     44 H44        -2.6338   -6.3155   -0.0469 H         1 ATP         0.4215
@<TRIPOS>BOND
     1    1    2 2
     2    1    3 1
     3    1    4 1
     4    1    8 1
     5    4   32 1
     6    5    6 2
     7    5    7 1
     8    5    8 1
     9    5   12 1
    10    9   10 2
    11    9   11 1
    12    9   12 1
    13    9   13 1
    14   13   14 1
    15   14   15 1
    16   14   33 1
    17   14   34 1
    18   15   16 1
    19   15   17 1
    20   15   35 1
    21   16   21 1
    22   17   18 1
    23   17   19 1
    24   17   36 1
    25   18   37 1
    26   19   20 1
    27   19   21 1
    28   19   38 1
    29   20   39 1
    30   21   22 1
    31   21   40 1
    32   22   23 ar
    33   22   31 ar
    34   23   24 ar
    35   23   41 1
    36   24   25 ar
    37   25   26 ar
    38   25   31 ar
    39   26   27 2
    40   26   28 ar
    41   27   42 1
    42   28   29 ar
    43   28   44 1
    44   29   30 ar
    45   29   43 1
    46   30   31 ar
@<TRIPOS>SUBSTRUCTURE
     1 ATP         1 GROUP 0 A     ****
@<TRIPOS>MOLECULE
[[[3,4-dihydroxy-5-(6-imino-1~{H}-purin-9-yl)tetrahydrofuran-2-yl]methoxy-oxido-phosphoryl]oxy-oxido-phosphoryl] hydrogen phosphate
   44    46     1     0     0
SMALL
USER_CHARGES

@<TRIPOS>ATOM
      1 PG         -2.0305    8.6045   -0.5266 P.3       1 ATP         1.5257
      2 O1G        -2.3562    8.5012   -1.9999 O.co2     1 ATP        -0.8737
      3 O2G        -0.7461    9.2514   -0.0580 O.co2     1 ATP        -0.8737
      4 O3G        -3.2823    9.3285    0.2317 O.3       1 ATP        -0.7971
      5 PB         -3.3926    6.0601    0.1172 P.3       1 ATP         1.6824
      6 O1B        -4.5549    6.6441    0.8888 O.co2     1 ATP        -0.8925
      7 O2B        -3.5650    5.5606   -1.2999 O.co2     1 ATP        -0.8925
      8 O3B        -2.1550    7.1245    0.1500 O.3       1 ATP        -0.8047
      9 PA         -3.3161    3.4234    1.4576 P.3       1 ATP         1.5908
     10 O1A        -3.5064    2.5741    0.2195 O.co2     1 ATP        -0.8932
     11 O2A        -4.4616    3.6587    2.4178 O.co2     1 ATP        -0.8932
     12 O3A        -2.7135    4.8751    1.0113 O.3       1 ATP        -0.8088
     13 O5'        -2.0401    2.8620    2.3128 O.3       1 ATP        -0.5646
     14 C5'        -0.8811    2.4285    1.6206 C.3       1 ATP         0.2204
     15 C4'        -0.1994    1.3333    2.4288 C.3       1 ATP         0.0965
     16 O4'        -1.1285    0.2356    2.5840 O.3       1 ATP        -0.3907
     17 C3'         1.0324    0.7610    1.7344 C.3       1 ATP         0.0763
     18 O3'         1.9175    0.2377    2.7247 O.3       1 ATP        -0.5884
     19 C2'         0.4468   -0.3802    0.9263 C.3       1 ATP         0.0784
     20 O2'         1.3993   -1.3703    0.5961 O.3       1 ATP        -0.6085
     21 C1'        -0.6159   -0.9100    1.8769 C.3       1 ATP         0.2186
     22 N9         -1.7127   -1.6108    1.2130 N.pl3     1 ATP        -0.1699
     23 C8         -2.8662   -1.0361    0.7388 C.ar      1 ATP         0.4438
     24 N7         -3.6774   -1.9166    0.1867 N.2       1 ATP        -0.6280
     25 C5         -3.0159   -3.1045    0.3122 C.ar      1 ATP         0.2109
     26 C6         -3.4377   -4.4169   -0.1199 C.ar      1 ATP         0.6180
     27 N6         -4.5720   -4.5691   -0.7080 N.2       1 ATP        -0.8319
     28 N1         -2.4600   -5.3463    0.2071 N.pl3     1 ATP        -0.8664
     29 C2         -1.2595   -5.0554    0.8515 C.ar      1 ATP         0.5952
     30 N3         -0.8555   -3.8803    1.2516 N.2       1 ATP        -0.5599
     31 C4         -1.7946   -2.9457    0.9448 C.ar      1 ATP         0.0076
     32 HOG3       -3.2227    9.4695    1.2006 H         1 ATP         0.4101
     33 H5'1       -1.1767    2.0502    0.6368 H         1 ATP         0.0364
     34 H5'2       -0.2080    3.2814    1.4876 H         1 ATP         0.0364
     35 H4'         0.0403    1.7078    3.4343 H         1 ATP         0.0945
     36 H3'         1.5907    1.4859    1.1353 H         1 ATP         0.0703
     37 HO3'        2.6839   -0.1150    2.2479 H         1 ATP         0.4099
     38 H2'        -0.0017    0.0018    0.0005 H         1 ATP         0.0676
     39 HO2'        2.0953   -0.9375    0.0709 H         1 ATP         0.4291
     40 H1'        -0.1998   -1.6319    2.6178 H         1 ATP         0.0950
     41 H8         -3.0558    0.0252    0.8256 H         1 ATP         0.1135
     42 HN62       -4.7047   -5.5592   -0.9421 H         1 ATP         0.3588
     43 H2         -0.6372   -5.9505    1.0077 H         1 ATP         0.0302
     44 H44        -2.6338   -6.3155   -0.0469 H         1 ATP         0.4215
@<TRIPOS>BOND
     1    1    2 2
     2    1    3 1
     3    1    4 1
     4    1    8 1
     5    4   32 1
     6    5    6 2
     7    5    7 1
     8    5    8 1
     9    5   12 1
    10    9   10 2
    11    9   11 1
    12    9   12 1
    13    9   13 1
    14   13   14 1
    15   14   15 1
    16   14   33 1
    17   14   34 1
    18   15   16 1
    19   15   17 1
    20   15   35 1
    21   16   21 1
    22   17   18 1
    23   17   19 1
    24   17   36 1
    25   18   37 1
    26   19   20 1
    27   19   21 1
    28   19   38 1
    29   20   39 1
    30   21   22 1
    31   21   40 1
    32   22   23 ar
    33   22   31 ar
    34   23   24 ar
    35   23   41 1
    36   24   25 ar
    37   25   26 ar
    38   25   31 ar
    39   26   27 2
    40   26   28 ar
    41   27   42 1
    42   28   29 ar
    43   28   44 1
    44   29   30 ar
    45   29   43 1
    46   30   31 ar
@<TRIPOS>SUBSTRUCTURE
     1 ATP         1 GROUP 0 A     ****
@<TRIPOS>MOLECULE
[[[3,4-dihydroxy-5-(6-imino-1~{H}-purin-9-yl)tetrahydrofuran-2-yl]methoxy-oxido-phosphoryl]oxy-oxido-phosphoryl] hydrogen phosphate
   44    46     1     0     0
SMALL
USER_CHARGES

@<TRIPOS>ATOM
      1 PG         -5.0462    7.2449    0.2475 P.3       1 ATP         1.5257
      2 O1G        -5.8245    6.7231   -0.9397 O.co2     1 ATP        -0.8737
      3 O2G        -4.6688    8.7061    0.3481 O.co2     1 ATP        -0.8737
      4 O3G        -5.8340    6.8178    1.6124 O.3       1 ATP        -0.7971
      5 PB         -2.3895    6.1938   -0.5145 P.3       1 ATP         1.6824
      6 O1B        -2.8016    5.5237   -1.8063 O.co2     1 ATP        -0.8925
      7 O2B        -1.6460    7.5109   -0.5178 O.co2     1 ATP        -0.8925
      8 O3B        -3.7040    6.3372    0.4432 O.3       1 ATP        -0.8047
      9 PA         -0.0889    4.4444    0.1193 P.3       1 ATP         1.5908
     10 O1A         0.9661    5.5282    0.1728 O.co2     1 ATP        -0.8932
     11 O2A        -0.2001    3.5318   -1.0825 O.co2     1 ATP        -0.8932
     12 O3A        -1.5516    5.1216    0.3871 O.3       1 ATP        -0.8088
     13 O5'         0.0178    3.5131    1.4595 O.3       1 ATP        -0.5646
     14 C5'        -0.8811    2.4285    1.6206 C.3       1 ATP         0.2204
     15 C4'        -0.1994    1.3333    2.4288 C.3       1 ATP         0.0965
     16 O4'        -1.1285    0.2356    2.5840 O.3       1 ATP        -0.3907
     17 C3'         1.0324    0.7610    1.7344 C.3       1 ATP         0.0763
     18 O3'         1.9175    0.2377    2.7247 O.3       1 ATP        -0.5884
     19 C2'         0.4468   -0.3802    0.9263 C.3       1 ATP         0.0784
     20 O2'         1.3993   -1.3703    0.5961 O.3       1 ATP        -0.6085
     21 C1'        -0.6159   -0.9100    1.8769 C.3       1 ATP         0.2186
     22 N9         -1.7127   -1.6108    1.2130 N.pl3     1 ATP        -0.1699
     23 C8         -2.8662   -1.0361    0.7388 C.ar      1 ATP         0.4438
     24 N7         -3.6774   -1.9166    0.1867 N.2       1 ATP        -0.6280
     25 C5         -3.0159   -3.1045    0.3122 C.ar      1 ATP         0.2109
     26 C6         -3.4377   -4.4169   -0.1199 C.ar      1 ATP         0.6180
     27 N6         -4.5720   -4.5691   -0.7080 N.2       1 ATP        -0.8319
     28 N1         -2.4600   -5.3463    0.2071 N.pl3     1 ATP        -0.8664
     29 C2         -1.2595   -5.0554    0.8515 C.ar      1 ATP         0.5952
     30 N3         -0.8555   -3.8803    1.2516 N.2       1 ATP        -0.5599
     31 C4         -1.7946   -2.9457    0.9448 C.ar      1 ATP         0.0076
     32 HOG3       -5.4516    7.0851    2.4753 H         1 ATP         0.4101
     33 H5'1       -1.7771    2.7849    2.1387 H         1 ATP         0.0364
     34 H5'2       -1.1654    2.0541    0.6320 H         1 ATP         0.0364
     35 H4'         0.0403    1.7078    3.4343 H         1 ATP         0.0945
     36 H3'         1.5907    1.4859    1.1353 H         1 ATP         0.0703
     37 HO3'        2.1521    0.9800    3.3017 H         1 ATP         0.4099
     38 H2'        -0.0017    0.0018    0.0005 H         1 ATP         0.0676
     39 HO2'        0.9369   -2.0558    0.0825 H         1 ATP         0.4291
     40 H1'        -0.1998   -1.6319    2.6178 H         1 ATP         0.0950
     41 H8         -3.0558    0.0252    0.8256 H         1 ATP         0.1135
     42 HN62       -4.7047   -5.5592   -0.9421 H         1 ATP         0.3588
     43 H2         -0.6372   -5.9505    1.0077 H         1 ATP         0.0302
     44 H44        -2.6338   -6.3155   -0.0469 H         1 ATP         0.4215
@<TRIPOS>BOND
     1    1    2 2
     2    1    3 1
     3    1    4 1
     4    1    8 1
     5    4   32 1
     6    5    6 2
     7    5    7 1
     8    5    8 1
     9    5   12 1
    10    9   10 2
    11    9   11 1
    12    9   12 1
    13    9   13 1
    14   13   14 1
    15   14   15 1
    16   14   33 1
    17   14   34 1
    18   15   16 1
    19   15   17 1
    20   15   35 1
    21   16   21 1
    22   17   18 1
    23   17   19 1
    24   17   36 1
    25   18   37 1
    26   19   20 1
    27   19   21 1
    28   19   38 1
    29   20   39 1
    30   21   22 1
    31   21   40 1
    32   22   23 ar
    33   22   31 ar
    34   23   24 ar
    35   23   41 1
    36   24   25 ar
    37   25   26 ar
    38   25   31 ar
    39   26   27 2
    40   26   28 ar
    41   27   42 1
    42   28   29 ar
    43   28   44 1
    44   29   30 ar
    45   29   43 1
    46   30   31 ar
@<TRIPOS>SUBSTRUCTURE
     1 ATP         1 GROUP 0 A     ****
@<TRIPOS>MOLECULE
[[[3,4-dihydroxy-5-(6-imino-1~{H}-purin-9-yl)tetrahydrofuran-2-yl]methoxy-oxido-phosphoryl]oxy-oxido-phosphoryl] hydrogen phosphate
   44    46     1     0     0
SMALL
USER_CHARGES

@<TRIPOS>ATOM
      1 PG         -0.7591    8.7989    1.2891 P.3       1 ATP         1.5257
      2 O1G        -0.8280    8.7929   -0.2218 O.co2     1 ATP        -0.8737
      3 O2G         0.4320    9.3891    2.0105 O.co2     1 ATP        -0.8737
      4 O3G        -2.1153    9.5006    1.8673 O.3       1 ATP        -0.7971
      5 PB         -1.1961    6.7418    3.3678 P.3       1 ATP         1.6824
      6 O1B         0.1117    6.9212    4.1059 O.co2     1 ATP        -0.8925
      7 O2B        -2.4912    7.2904    3.9240 O.co2     1 ATP        -0.8925
      8 O3B        -1.0124    7.2830    1.8384 O.3       1 ATP        -0.8047
      9 PA         -2.5400    4.4095    2.1393 P.3       1 ATP         1.5908
     10 O1A        -2.3768    4.8335    0.6957 O.co2     1 ATP        -0.8932
     11 O2A        -3.8713    4.5576    2.8432 O.co2     1 ATP        -0.8932
     12 O3A        -1.3978    5.1558    3.0383 O.3       1 ATP        -0.8088
     13 O5'        -2.0401    2.8620    2.3128 O.3       1 ATP        -0.5646
     14 C5'        -0.8811    2.4285    1.6206 C.3       1 ATP         0.2204
     15 C4'        -0.1994    1.3333    2.4288 C.3       1 ATP         0.0965
     16 O4'        -1.1285    0.2356    2.5840 O.3       1 ATP        -0.3907
     17 C3'         1.0324    0.7610    1.7344 C.3       1 ATP         0.0763
     18 O3'         1.9175    0.2377    2.7247 O.3       1 ATP        -0.5884
     19 C2'         0.4468   -0.3802    0.9263 C.3       1 ATP         0.0784
     20 O2'         1.3993   -1.3703    0.5961 O.3       1 ATP        -0.6085
     21 C1'        -0.6159   -0.9100    1.8769 C.3       1 ATP         0.2186
     22 N9         -1.7127   -1.6108    1.2130 N.pl3     1 ATP        -0.1699
     23 C8         -1.7690   -2.9583    0.9549 C.ar      1 ATP         0.4438
     24 N7         -2.8827   -3.3076    0.3418 N.2       1 ATP        -0.6280
     25 C5         -3.5683   -2.1351    0.2017 C.ar      1 ATP         0.2109
     26 C6         -4.8617   -1.9185   -0.4044 C.ar      1 ATP         0.6180
     27 N6         -5.5166   -2.9094   -0.8993 N.2       1 ATP        -0.8319
     28 N1         -5.1837   -0.5701   -0.3344 N.pl3     1 ATP        -0.8664
     29 C2         -4.3821    0.4180    0.2330 C.ar      1 ATP         0.5952
     30 N3         -3.2117    0.2488    0.7860 N.2       1 ATP        -0.5599
     31 C4         -2.8672   -1.0657    0.7327 C.ar      1 ATP         0.0076
     32 HOG3       -2.2216    9.5807    2.8392 H         1 ATP         0.4101
     33 H5'1       -1.1767    2.0502    0.6368 H         1 ATP         0.0364
     34 H5'2       -0.2080    3.2814    1.4876 H         1 ATP         0.0364
     35 H4'         0.0403    1.7078    3.4343 H         1 ATP         0.0945
     36 H3'         1.5907    1.4859    1.1353 H         1 ATP         0.0703
     37 HO3'        2.6839   -0.1150    2.2479 H         1 ATP         0.4099
     38 H2'        -0.0017    0.0018    0.0005 H         1 ATP         0.0676
     39 HO2'        2.0953   -0.9375    0.0709 H         1 ATP         0.4291
     40 H1'        -0.1998   -1.6319    2.6178 H         1 ATP         0.0950
     41 H8         -0.9697   -3.6300    1.2371 H         1 ATP         0.1135
     42 HN62       -6.4060   -2.5723   -1.2840 H         1 ATP         0.3588
     43 H2         -4.8409    1.4176    0.1757 H         1 ATP         0.0302
     44 H44        -6.0768   -0.2826   -0.7263 H         1 ATP         0.4215
@<TRIPOS>BOND
     1    1    2 2
     2    1    3 1
     3    1    4 1
     4    1    8 1
     5    4   32 1
     6    5    6 2
     7    5    7 1
     8    5    8 1
     9    5   12 1
    10    9   10 2
    11    9   11 1
    12    9   12 1
    13    9   13 1
    14   13   14 1
    15   14   15 1
    16   14   33 1
    17   14   34 1
    18   15   16 1
    19   15   17 1
    20   15   35 1
    21   16   21 1
    22   17   18 1
    23   17   19 1
    24   17   36 1
    25   18   37 1
    26   19   20 1
    27   19   21 1
    28   19   38 1
    29   20   39 1
    30   21   22 1
    31   21   40 1
    32   22   23 ar
    33   22   31 ar
    34   23   24 ar
    35   23   41 1
    36   24   25 ar
    37   25   26 ar
    38   25   31 ar
    39   26   27 2
    40   26   28 ar
    41   27   42 1
    42   28   29 ar
    43   28   44 1
    44   29   30 ar
    45   29   43 1
    46   30   31 ar
@<TRIPOS>SUBSTRUCTURE
     1 ATP         1 GROUP 0 A     ****
@<TRIPOS>MOLECULE
[[[3,4-dihydroxy-5-(6-imino-1~{H}-purin-9-yl)tetrahydrofuran-2-yl]methoxy-oxido-phosphoryl]oxy-oxido-phosphoryl] hydrogen phosphate
   44    46     1     0     0
SMALL
USER_CHARGES

@<TRIPOS>ATOM
      1 PG         -0.5709    3.5262   -4.9196 P.3       1 ATP         1.5257
      2 O1G        -1.9497    3.9709   -5.3537 O.co2     1 ATP        -0.8737
      3 O2G        -0.0150    2.1868   -5.3493 O.co2     1 ATP        -0.8737
      4 O3G         0.5013    4.6878   -5.3284 O.3       1 ATP        -0.7971
      5 PB         -0.7639    4.9217   -2.3198 P.3       1 ATP         1.6824
      6 O1B         0.2629    5.9981   -2.5929 O.co2     1 ATP        -0.8925
      7 O2B        -2.2453    5.2232   -2.3633 O.co2     1 ATP        -0.8925
      8 O3B        -0.4599    3.6487   -3.2959 O.3       1 ATP        -0.8047
      9 PA         -0.4665    4.8322    0.6228 P.3       1 ATP         1.5908
     10 O1A        -1.9050    5.1497    0.9698 O.co2     1 ATP        -0.8932
     11 O2A         0.6096    5.8892    0.7429 O.co2     1 ATP        -0.8932
     12 O3A        -0.4148    4.2162   -0.8897 O.3       1 ATP        -0.8088
     13 O5'         0.0178    3.5131    1.4595 O.3       1 ATP        -0.5646
     14 C5'        -0.8811    2.4285    1.6206 C.3       1 ATP         0.2204
     15 C4'        -0.1994    1.3333    2.4288 C.3       1 ATP         0.0965
     16 O4'        -1.1285    0.2356    2.5840 O.3       1 ATP        -0.3907
     17 C3'         1.0324    0.7610    1.7344 C.3       1 ATP         0.0763
     18 O3'         1.9175    0.2377    2.7247 O.3       1 ATP        -0.5884
     19 C2'         0.4468   -0.3802    0.9263 C.3       1 ATP         0.0784
     20 O2'         1.3993   -1.3703    0.5961 O.3       1 ATP        -0.6085
     21 C1'        -0.6159   -0.9100    1.8769 C.3       1 ATP         0.2186
     22 N9         -1.7127   -1.6108    1.2130 N.pl3     1 ATP        -0.1699
     23 C8         -1.7690   -2.9583    0.9549 C.ar      1 ATP         0.4438
     24 N7         -2.8827   -3.3076    0.3418 N.2       1 ATP        -0.6280
     25 C5         -3.5683   -2.1351    0.2017 C.ar      1 ATP         0.2109
     26 C6         -4.8617   -1.9185   -0.4044 C.ar      1 ATP         0.6180
     27 N6         -5.5166   -2.9094   -0.8993 N.2       1 ATP        -0.8319
     28 N1         -5.1837   -0.5701   -0.3344 N.pl3     1 ATP        -0.8664
     29 C2         -4.3821    0.4180    0.2330 C.ar      1 ATP         0.5952
     30 N3         -3.2117    0.2488    0.7860 N.2       1 ATP        -0.5599
     31 C4         -2.8672   -1.0657    0.7327 C.ar      1 ATP         0.0076
     32 HOG3        1.4476    4.5468   -5.1118 H         1 ATP         0.4101
     33 H5'1       -1.7771    2.7849    2.1387 H         1 ATP         0.0364
     34 H5'2       -1.1654    2.0541    0.6320 H         1 ATP         0.0364
     35 H4'         0.0403    1.7078    3.4343 H         1 ATP         0.0945
     36 H3'         1.5907    1.4859    1.1353 H         1 ATP         0.0703
     37 HO3'        2.6839   -0.1150    2.2479 H         1 ATP         0.4099
     38 H2'        -0.0017    0.0018    0.0005 H         1 ATP         0.0676
     39 HO2'        2.0953   -0.9375    0.0709 H         1 ATP         0.4291
     40 H1'        -0.1998   -1.6319    2.6178 H         1 ATP         0.0950
     41 H8         -0.9697   -3.6300    1.2371 H         1 ATP         0.1135
     42 HN62       -6.4060   -2.5723   -1.2840 H         1 ATP         0.3588
     43 H2         -4.8409    1.4176    0.1757 H         1 ATP         0.0302
     44 H44        -6.0768   -0.2826   -0.7263 H         1 ATP         0.4215
@<TRIPOS>BOND
     1    1    2 2
     2    1    3 1
     3    1    4 1
     4    1    8 1
     5    4   32 1
     6    5    6 2
     7    5    7 1
     8    5    8 1
     9    5   12 1
    10    9   10 2
    11    9   11 1
    12    9   12 1
    13    9   13 1
    14   13   14 1
    15   14   15 1
    16   14   33 1
    17   14   34 1
    18   15   16 1
    19   15   17 1
    20   15   35 1
    21   16   21 1
    22   17   18 1
    23   17   19 1
    24   17   36 1
    25   18   37 1
    26   19   20 1
    27   19   21 1
    28   19   38 1
    29   20   39 1
    30   21   22 1
    31   21   40 1
    32   22   23 ar
    33   22   31 ar
    34   23   24 ar
    35   23   41 1
    36   24   25 ar
    37   25   26 ar
    38   25   31 ar
    39   26   27 2
    40   26   28 ar
    41   27   42 1
    42   28   29 ar
    43   28   44 1
    44   29   30 ar
    45   29   43 1
    46   30   31 ar
@<TRIPOS>SUBSTRUCTURE
     1 ATP         1 GROUP 0 A     ****
@<TRIPOS>MOLECULE
[[[3,4-dihydroxy-5-(6-imino-1~{H}-purin-9-yl)tetrahydrofuran-2-yl]methoxy-oxido-phosphoryl]oxy-oxido-phosphoryl] hydrogen phosphate
   44    46     1     0     0
SMALL
USER_CHARGES

@<TRIPOS>ATOM
      1 PG         -4.2905    5.6884   -2.6755 P.3       1 ATP         1.5257
      2 O1G        -4.4432    4.4823   -3.5752 O.co2     1 ATP        -0.8737
      3 O2G        -3.5732    6.9304   -3.1556 O.co2     1 ATP        -0.8737
      4 O3G        -5.7683    6.1206   -2.1321 O.3       1 ATP        -0.7971
      5 PB         -3.3926    6.0601    0.1172 P.3       1 ATP         1.6824
      6 O1B        -2.3518    7.1254   -0.1466 O.co2     1 ATP        -0.8925
      7 O2B        -4.7370    6.4096    0.7155 O.co2     1 ATP        -0.8925
      8 O3B        -3.6356    5.2140   -1.2578 O.3       1 ATP        -0.8047
      9 PA         -3.3161    3.4234    1.4576 P.3       1 ATP         1.5908
     10 O1A        -3.5064    2.5741    0.2195 O.co2     1 ATP        -0.8932
     11 O2A        -4.4616    3.6587    2.4178 O.co2     1 ATP        -0.8932
     12 O3A        -2.7135    4.8751    1.0113 O.3       1 ATP        -0.8088
     13 O5'        -2.0401    2.8620    2.3128 O.3       1 ATP        -0.5646
     14 C5'        -0.8811    2.4285    1.6206 C.3       1 ATP         0.2204
     15 C4'        -0.1994    1.3333    2.4288 C.3       1 ATP         0.0965
     16 O4'        -1.1285    0.2356    2.5840 O.3       1 ATP        -0.3907
     17 C3'         1.0324    0.7610    1.7344 C.3       1 ATP         0.0763
     18 O3'         1.9175    0.2377    2.7247 O.3       1 ATP        -0.5884
     19 C2'         0.4468   -0.3802    0.9263 C.3       1 ATP         0.0784
     20 O2'         1.3993   -1.3703    0.5961 O.3       1 ATP        -0.6085
     21 C1'        -0.6159   -0.9100    1.8769 C.3       1 ATP         0.2186
     22 N9         -1.7127   -1.6108    1.2130 N.pl3     1 ATP        -0.1699
     23 C8         -2.8662   -1.0361    0.7388 C.ar      1 ATP         0.4438
     24 N7         -3.6774   -1.9166    0.1867 N.2       1 ATP        -0.6280
     25 C5         -3.0159   -3.1045    0.3122 C.ar      1 ATP         0.2109
     26 C6         -3.4377   -4.4169   -0.1199 C.ar      1 ATP         0.6180
     27 N6         -4.5720   -4.5691   -0.7080 N.2       1 ATP        -0.8319
     28 N1         -2.4600   -5.3463    0.2071 N.pl3     1 ATP        -0.8664
     29 C2         -1.2595   -5.0554    0.8515 C.ar      1 ATP         0.5952
     30 N3         -0.8555   -3.8803    1.2516 N.2       1 ATP        -0.5599
     31 C4         -1.7946   -2.9457    0.9448 C.ar      1 ATP         0.0076
     32 HOG3       -5.8374    6.8932   -1.5317 H         1 ATP         0.4101
     33 H5'1       -1.1767    2.0502    0.6368 H         1 ATP         0.0364
     34 H5'2       -0.2080    3.2814    1.4876 H         1 ATP         0.0364
     35 H4'         0.0403    1.7078    3.4343 H         1 ATP         0.0945
     36 H3'         1.5907    1.4859    1.1353 H         1 ATP         0.0703
     37 HO3'        2.6839   -0.1150    2.2479 H         1 ATP         0.4099
     38 H2'        -0.0017    0.0018    0.0005 H         1 ATP         0.0676
     39 HO2'        2.0953   -0.9375    0.0709 H         1 ATP         0.4291
     40 H1'        -0.1998   -1.6319    2.6178 H         1 ATP         0.0950
     41 H8         -3.0558    0.0252    0.8256 H         1 ATP         0.1135
     42 HN62       -4.7047   -5.5592   -0.9421 H         1 ATP         0.3588
     43 H2         -0.6372   -5.9505    1.0077 H         1 ATP         0.0302
     44 H44        -2.6338   -6.3155   -0.0469 H         1 ATP         0.4215
@<TRIPOS>BOND
     1    1    2 2
     2    1    3 1
     3    1    4 1
     4    1    8 1
     5    4   32 1
     6    5    6 2
     7    5    7 1
     8    5    8 1
     9    5   12 1
    10    9   10 2
    11    9   11 1
    12    9   12 1
    13    9   13 1
    14   13   14 1
    15   14   15 1
    16   14   33 1
    17   14   34 1
    18   15   16 1
    19   15   17 1
    20   15   35 1
    21   16   21 1
    22   17   18 1
    23   17   19 1
    24   17   36 1
    25   18   37 1
    26   19   20 1
    27   19   21 1
    28   19   38 1
    29   20   39 1
    30   21   22 1
    31   21   40 1
    32   22   23 ar
    33   22   31 ar
    34   23   24 ar
    35   23   41 1
    36   24   25 ar
    37   25   26 ar
    38   25   31 ar
    39   26   27 2
    40   26   28 ar
    41   27   42 1
    42   28   29 ar
    43   28   44 1
    44   29   30 ar
    45   29   43 1
    46   30   31 ar
@<TRIPOS>SUBSTRUCTURE
     1 ATP         1 GROUP 0 A     ****
@<TRIPOS>MOLECULE
[[[3,4-dihydroxy-5-(6-imino-1~{H}-purin-9-yl)tetrahydrofuran-2-yl]methoxy-oxido-phosphoryl]oxy-oxido-phosphoryl] hydrogen phosphate
   44    46     1     0     0
SMALL
USER_CHARGES

@<TRIPOS>ATOM
      1 PG         -1.4517    7.2150    6.6304 P.3       1 ATP         1.5257
      2 O1G        -1.5968    8.5785    5.9923 O.co2     1 ATP        -0.8737
      3 O2G        -0.3954    6.9572    7.6818 O.co2     1 ATP        -0.8737
      4 O3G        -2.9020    6.7668    7.2319 O.3       1 ATP        -0.7971
      5 PB         -0.1155    5.8502    4.3731 P.3       1 ATP         1.6824
      6 O1B        -0.0787    7.0250    3.4214 O.co2     1 ATP        -0.8925
      7 O2B         1.1249    5.4035    5.1145 O.co2     1 ATP        -0.8925
      8 O3B        -1.3140    6.0906    5.4554 O.3       1 ATP        -0.8047
      9 PA         -2.1561    4.4278    2.7707 P.3       1 ATP         1.5908
     10 O1A        -2.0925    5.3170    1.5478 O.co2     1 ATP        -0.8932
     11 O2A        -3.2978    4.5484    3.7564 O.co2     1 ATP        -0.8932
     12 O3A        -0.7509    4.5646    3.5932 O.3       1 ATP        -0.8088
     13 O5'        -2.0401    2.8620    2.3128 O.3       1 ATP        -0.5646
     14 C5'        -0.8811    2.4285    1.6206 C.3       1 ATP         0.2204
     15 C4'        -0.1994    1.3333    2.4288 C.3       1 ATP         0.0965
     16 O4'        -1.1285    0.2356    2.5840 O.3       1 ATP        -0.3907
     17 C3'         1.0324    0.7610    1.7344 C.3       1 ATP         0.0763
     18 O3'         1.9175    0.2377    2.7247 O.3       1 ATP        -0.5884
     19 C2'         0.4468   -0.3802    0.9263 C.3       1 ATP         0.0784
     20 O2'         1.3993   -1.3703    0.5961 O.3       1 ATP        -0.6085
     21 C1'        -0.6159   -0.9100    1.8769 C.3       1 ATP         0.2186
     22 N9         -1.7127   -1.6108    1.2130 N.pl3     1 ATP        -0.1699
     23 C8         -2.8662   -1.0361    0.7388 C.ar      1 ATP         0.4438
     24 N7         -3.6774   -1.9166    0.1867 N.2       1 ATP        -0.6280
     25 C5         -3.0159   -3.1045    0.3122 C.ar      1 ATP         0.2109
     26 C6         -3.4377   -4.4169   -0.1199 C.ar      1 ATP         0.6180
     27 N6         -4.5720   -4.5691   -0.7080 N.2       1 ATP        -0.8319
     28 N1         -2.4600   -5.3463    0.2071 N.pl3     1 ATP        -0.8664
     29 C2         -1.2595   -5.0554    0.8515 C.ar      1 ATP         0.5952
     30 N3         -0.8555   -3.8803    1.2516 N.2       1 ATP        -0.5599
     31 C4         -1.7946   -2.9457    0.9448 C.ar      1 ATP         0.0076
     32 HOG3       -2.9727    5.8977    7.6813 H         1 ATP         0.4101
     33 H5'1       -1.1767    2.0502    0.6368 H         1 ATP         0.0364
     34 H5'2       -0.2080    3.2814    1.4876 H         1 ATP         0.0364
     35 H4'         0.0403    1.7078    3.4343 H         1 ATP         0.0945
     36 H3'         1.5907    1.4859    1.1353 H         1 ATP         0.0703
     37 HO3'        2.6839   -0.1150    2.2479 H         1 ATP         0.4099
     38 H2'        -0.0017    0.0018    0.0005 H         1 ATP         0.0676
     39 HO2'        2.0953   -0.9375    0.0709 H         1 ATP         0.4291
     40 H1'        -0.1998   -1.6319    2.6178 H         1 ATP         0.0950
     41 H8         -3.0558    0.0252    0.8256 H         1 ATP         0.1135
     42 HN62       -4.7047   -5.5592   -0.9421 H         1 ATP         0.3588
     43 H2         -0.6372   -5.9505    1.0077 H         1 ATP         0.0302
     44 H44        -2.6338   -6.3155   -0.0469 H         1 ATP         0.4215
@<TRIPOS>BOND
     1    1    2 2
     2    1    3 1
     3    1    4 1
     4    1    8 1
     5    4   32 1
     6    5    6 2
     7    5    7 1
     8    5    8 1
     9    5   12 1
    10    9   10 2
    11    9   11 1
    12    9   12 1
    13    9   13 1
    14   13   14 1
    15   14   15 1
    16   14   33 1
    17   14   34 1
    18   15   16 1
    19   15   17 1
    20   15   35 1
    21   16   21 1
    22   17   18 1
    23   17   19 1
    24   17   36 1
    25   18   37 1
    26   19   20 1
    27   19   21 1
    28   19   38 1
    29   20   39 1
    30   21   22 1
    31   21   40 1
    32   22   23 ar
    33   22   31 ar
    34   23   24 ar
    35   23   41 1
    36   24   25 ar
    37   25   26 ar
    38   25   31 ar
    39   26   27 2
    40   26   28 ar
    41   27   42 1
    42   28   29 ar
    43   28   44 1
    44   29   30 ar
    45   29   43 1
    46   30   31 ar
@<TRIPOS>SUBSTRUCTURE
     1 ATP         1 GROUP 0 A     ****
@<TRIPOS>MOLECULE
[[[3,4-dihydroxy-5-(6-imino-1~{H}-purin-9-yl)tetrahydrofuran-2-yl]methoxy-oxido-phosphoryl]oxy-oxido-phosphoryl] hydrogen phosphate
   44    46     1     0     0
SMALL
USER_CHARGES

@<TRIPOS>ATOM
      1 PG         -1.2229    5.9594   -1.6951 P.3       1 ATP         1.5257
      2 O1G        -1.1170    4.7568   -2.6062 O.co2     1 ATP        -0.8737
      3 O2G        -0.1713    6.2322   -0.6427 O.co2     1 ATP        -0.8737
      4 O3G        -1.3921    7.2958   -2.6177 O.3       1 ATP        -0.7971
      5 PB         -3.3314    4.9239    0.1010 P.3       1 ATP         1.6824
      6 O1B        -4.6637    5.4680    0.5659 O.co2     1 ATP        -0.8925
      7 O2B        -3.2053    3.5168   -0.4391 O.co2     1 ATP        -0.8925
      8 O3B        -2.6932    5.9611   -0.9865 O.3       1 ATP        -0.8047
      9 PA         -2.1561    4.4278    2.7707 P.3       1 ATP         1.5908
     10 O1A        -3.4710    4.6479    3.4867 O.co2     1 ATP        -0.8932
     11 O2A        -0.8475    4.8296    3.4155 O.co2     1 ATP        -0.8932
     12 O3A        -2.2377    5.1262    1.2959 O.3       1 ATP        -0.8088
     13 O5'        -2.0401    2.8620    2.3128 O.3       1 ATP        -0.5646
     14 C5'        -0.8811    2.4285    1.6206 C.3       1 ATP         0.2204
     15 C4'        -0.1994    1.3333    2.4288 C.3       1 ATP         0.0965
     16 O4'        -1.1285    0.2356    2.5840 O.3       1 ATP        -0.3907
     17 C3'         1.0324    0.7610    1.7344 C.3       1 ATP         0.0763
     18 O3'         1.9175    0.2377    2.7247 O.3       1 ATP        -0.5884
     19 C2'         0.4468   -0.3802    0.9263 C.3       1 ATP         0.0784
     20 O2'         1.3993   -1.3703    0.5961 O.3       1 ATP        -0.6085
     21 C1'        -0.6159   -0.9100    1.8769 C.3       1 ATP         0.2186
     22 N9         -1.7127   -1.6108    1.2130 N.pl3     1 ATP        -0.1699
     23 C8         -1.7690   -2.9583    0.9549 C.ar      1 ATP         0.4438
     24 N7         -2.8827   -3.3076    0.3418 N.2       1 ATP        -0.6280
     25 C5         -3.5683   -2.1351    0.2017 C.ar      1 ATP         0.2109
     26 C6         -4.8617   -1.9185   -0.4044 C.ar      1 ATP         0.6180
     27 N6         -5.5166   -2.9094   -0.8993 N.2       1 ATP        -0.8319
     28 N1         -5.1837   -0.5701   -0.3344 N.pl3     1 ATP        -0.8664
     29 C2         -4.3821    0.4180    0.2330 C.ar      1 ATP         0.5952
     30 N3         -3.2117    0.2488    0.7860 N.2       1 ATP        -0.5599
     31 C4         -2.8672   -1.0657    0.7327 C.ar      1 ATP         0.0076
     32 HOG3       -1.4743    8.1648   -2.1701 H         1 ATP         0.4101
     33 H5'1       -1.1767    2.0502    0.6368 H         1 ATP         0.0364
     34 H5'2       -0.2080    3.2814    1.4876 H         1 ATP         0.0364
     35 H4'         0.0403    1.7078    3.4343 H         1 ATP         0.0945
     36 H3'         1.5907    1.4859    1.1353 H         1 ATP         0.0703
     37 HO3'        2.6839   -0.1150    2.2479 H         1 ATP         0.4099
     38 H2'        -0.0017    0.0018    0.0005 H         1 ATP         0.0676
     39 HO2'        2.0953   -0.9375    0.0709 H         1 ATP         0.4291
     40 H1'        -0.1998   -1.6319    2.6178 H         1 ATP         0.0950
     41 H8         -0.9697   -3.6300    1.2371 H         1 ATP         0.1135
     42 HN62       -6.4060   -2.5723   -1.2840 H         1 ATP         0.3588
     43 H2         -4.8409    1.4176    0.1757 H         1 ATP         0.0302
     44 H44        -6.0768   -0.2826   -0.7263 H         1 ATP         0.4215
@<TRIPOS>BOND
     1    1    2 2
     2    1    3 1
     3    1    4 1
     4    1    8 1
     5    4   32 1
     6    5    6 2
     7    5    7 1
     8    5    8 1
     9    5   12 1
    10    9   10 2
    11    9   11 1
    12    9   12 1
    13    9   13 1
    14   13   14 1
    15   14   15 1
    16   14   33 1
    17   14   34 1
    18   15   16 1
    19   15   17 1
    20   15   35 1
    21   16   21 1
    22   17   18 1
    23   17   19 1
    24   17   36 1
    25   18   37 1
    26   19   20 1
    27   19   21 1
    28   19   38 1
    29   20   39 1
    30   21   22 1
    31   21   40 1
    32   22   23 ar
    33   22   31 ar
    34   23   24 ar
    35   23   41 1
    36   24   25 ar
    37   25   26 ar
    38   25   31 ar
    39   26   27 2
    40   26   28 ar
    41   27   42 1
    42   28   29 ar
    43   28   44 1
    44   29   30 ar
    45   29   43 1
    46   30   31 ar
@<TRIPOS>SUBSTRUCTURE
     1 ATP         1 GROUP 0 A     ****
@<TRIPOS>MOLECULE
[[[3,4-dihydroxy-5-(6-imino-1~{H}-purin-9-yl)tetrahydrofuran-2-yl]methoxy-oxido-phosphoryl]oxy-oxido-phosphoryl] hydrogen phosphate
   44    46     1     0     0
SMALL
USER_CHARGES

@<TRIPOS>ATOM
      1 PG         -3.2206    8.3922    4.7539 P.3       1 ATP         1.5257
      2 O1G        -4.5155    8.0795    5.4700 O.co2     1 ATP        -0.8737
      3 O2G        -3.1517    9.4905    3.7163 O.co2     1 ATP        -0.8737
      4 O3G        -2.0617    8.6619    5.8720 O.3       1 ATP        -0.7971
      5 PB         -1.1961    6.7418    3.3678 P.3       1 ATP         1.6824
      6 O1B        -1.1704    7.5083    2.0642 O.co2     1 ATP        -0.8925
      7 O2B        -0.0866    6.8889    4.3850 O.co2     1 ATP        -0.8925
      8 O3B        -2.6250    7.0166    4.1084 O.3       1 ATP        -0.8047
      9 PA         -2.5400    4.4095    2.1393 P.3       1 ATP         1.5908
     10 O1A        -2.3768    4.8335    0.6957 O.co2     1 ATP        -0.8932
     11 O2A        -3.8713    4.5576    2.8432 O.co2     1 ATP        -0.8932
     12 O3A        -1.3978    5.1558    3.0383 O.3       1 ATP        -0.8088
     13 O5'        -2.0401    2.8620    2.3128 O.3       1 ATP        -0.5646
     14 C5'        -0.8811    2.4285    1.6206 C.3       1 ATP         0.2204
     15 C4'        -0.1994    1.3333    2.4288 C.3       1 ATP         0.0965
     16 O4'        -1.1285    0.2356    2.5840 O.3       1 ATP        -0.3907
     17 C3'         1.0324    0.7610    1.7344 C.3       1 ATP         0.0763
     18 O3'         1.9175    0.2377    2.7247 O.3       1 ATP        -0.5884
     19 C2'         0.4468   -0.3802    0.9263 C.3       1 ATP         0.0784
     20 O2'         1.3993   -1.3703    0.5961 O.3       1 ATP        -0.6085
     21 C1'        -0.6159   -0.9100    1.8769 C.3       1 ATP         0.2186
     22 N9         -1.7127   -1.6108    1.2130 N.pl3     1 ATP        -0.1699
     23 C8         -1.7690   -2.9583    0.9549 C.ar      1 ATP         0.4438
     24 N7         -2.8827   -3.3076    0.3418 N.2       1 ATP        -0.6280
     25 C5         -3.5683   -2.1351    0.2017 C.ar      1 ATP         0.2109
     26 C6         -4.8617   -1.9185   -0.4044 C.ar      1 ATP         0.6180
     27 N6         -5.5166   -2.9094   -0.8993 N.2       1 ATP        -0.8319
     28 N1         -5.1837   -0.5701   -0.3344 N.pl3     1 ATP        -0.8664
     29 C2         -4.3821    0.4180    0.2330 C.ar      1 ATP         0.5952
     30 N3         -3.2117    0.2488    0.7860 N.2       1 ATP        -0.5599
     31 C4         -2.8672   -1.0657    0.7327 C.ar      1 ATP         0.0076
     32 HOG3       -1.1564    8.8794    5.5631 H         1 ATP         0.4101
     33 H5'1       -1.1767    2.0502    0.6368 H         1 ATP         0.0364
     34 H5'2       -0.2080    3.2814    1.4876 H         1 ATP         0.0364
     35 H4'         0.0403    1.7078    3.4343 H         1 ATP         0.0945
     36 H3'         1.5907    1.4859    1.1353 H         1 ATP         0.0703
     37 HO3'        2.6839   -0.1150    2.2479 H         1 ATP         0.4099
     38 H2'        -0.0017    0.0018    0.0005 H         1 ATP         0.0676
     39 HO2'        2.0953   -0.9375    0.0709 H         1 ATP         0.4291
     40 H1'        -0.1998   -1.6319    2.6178 H         1 ATP         0.0950
     41 H8         -0.9697   -3.6300    1.2371 H         1 ATP         0.1135
     42 HN62       -6.4060   -2.5723   -1.2840 H         1 ATP         0.3588
     43 H2         -4.8409    1.4176    0.1757 H         1 ATP         0.0302
     44 H44        -6.0768   -0.2826   -0.7263 H         1 ATP         0.4215
@<TRIPOS>BOND
     1    1    2 2
     2    1    3 1
     3    1    4 1
     4    1    8 1
     5    4   32 1
     6    5    6 2
     7    5    7 1
     8    5    8 1
     9    5   12 1
    10    9   10 2
    11    9   11 1
    12    9   12 1
    13    9   13 1
    14   13   14 1
    15   14   15 1
    16   14   33 1
    17   14   34 1
    18   15   16 1
    19   15   17 1
    20   15   35 1
    21   16   21 1
    22   17   18 1
    23   17   19 1
    24   17   36 1
    25   18   37 1
    26   19   20 1
    27   19   21 1
    28   19   38 1
    29   20   39 1
    30   21   22 1
    31   21   40 1
    32   22   23 ar
    33   22   31 ar
    34   23   24 ar
    35   23   41 1
    36   24   25 ar
    37   25   26 ar
    38   25   31 ar
    39   26   27 2
    40   26   28 ar
    41   27   42 1
    42   28   29 ar
    43   28   44 1
    44   29   30 ar
    45   29   43 1
    46   30   31 ar
@<TRIPOS>SUBSTRUCTURE
     1 ATP         1 GROUP 0 A     ****
@<TRIPOS>MOLECULE
[[[3,4-dihydroxy-5-(6-imino-1~{H}-purin-9-yl)tetrahydrofuran-2-yl]methoxy-oxido-phosphoryl]oxy-oxido-phosphoryl] hydrogen phosphate
   44    46     1     0     0
SMALL
USER_CHARGES

@<TRIPOS>ATOM
      1 PG         -1.6089    9.4524    1.3376 P.3       1 ATP         1.5257
      2 O1G        -2.2552    9.9833    2.5976 O.co2     1 ATP        -0.8737
      3 O2G        -2.1708    9.7894   -0.0257 O.co2     1 ATP        -0.8737
      4 O3G        -0.0258    9.8515    1.3589 O.3       1 ATP        -0.7971
      5 PB         -2.6061    6.6739    1.5090 P.3       1 ATP         1.6824
      6 O1B        -3.3882    6.8202    2.7953 O.co2     1 ATP        -0.8925
      7 O2B        -3.3047    6.6283    0.1683 O.co2     1 ATP        -0.8925
      8 O3B        -1.4563    7.8321    1.4610 O.3       1 ATP        -0.8047
      9 PA         -0.4665    4.8322    0.6228 P.3       1 ATP         1.5908
     10 O1A         0.6558    5.8467    0.5864 O.co2     1 ATP        -0.8932
     11 O2A        -1.1281    4.3644   -0.6552 O.co2     1 ATP        -0.8932
     12 O3A        -1.6297    5.3718    1.6355 O.3       1 ATP        -0.8088
     13 O5'         0.0178    3.5131    1.4595 O.3       1 ATP        -0.5646
     14 C5'        -0.8811    2.4285    1.6206 C.3       1 ATP         0.2204
     15 C4'        -0.1994    1.3333    2.4288 C.3       1 ATP         0.0965
     16 O4'        -1.1285    0.2356    2.5840 O.3       1 ATP        -0.3907
     17 C3'         1.0324    0.7610    1.7344 C.3       1 ATP         0.0763
     18 O3'         1.9175    0.2377    2.7247 O.3       1 ATP        -0.5884
     19 C2'         0.4468   -0.3802    0.9263 C.3       1 ATP         0.0784
     20 O2'         1.3993   -1.3703    0.5961 O.3       1 ATP        -0.6085
     21 C1'        -0.6159   -0.9100    1.8769 C.3       1 ATP         0.2186
     22 N9         -1.7127   -1.6108    1.2130 N.pl3     1 ATP        -0.1699
     23 C8         -1.7690   -2.9583    0.9549 C.ar      1 ATP         0.4438
     24 N7         -2.8827   -3.3076    0.3418 N.2       1 ATP        -0.6280
     25 C5         -3.5683   -2.1351    0.2017 C.ar      1 ATP         0.2109
     26 C6         -4.8617   -1.9185   -0.4044 C.ar      1 ATP         0.6180
     27 N6         -5.5166   -2.9094   -0.8993 N.2       1 ATP        -0.8319
     28 N1         -5.1837   -0.5701   -0.3344 N.pl3     1 ATP        -0.8664
     29 C2         -4.3821    0.4180    0.2330 C.ar      1 ATP         0.5952
     30 N3         -3.2117    0.2488    0.7860 N.2       1 ATP        -0.5599
     31 C4         -2.8672   -1.0657    0.7327 C.ar      1 ATP         0.0076
     32 HOG3        0.5355    9.5756    0.6032 H         1 ATP         0.4101
     33 H5'1       -1.7771    2.7849    2.1387 H         1 ATP         0.0364
     34 H5'2       -1.1654    2.0541    0.6320 H         1 ATP         0.0364
     35 H4'         0.0403    1.7078    3.4343 H         1 ATP         0.0945
     36 H3'         1.5907    1.4859    1.1353 H         1 ATP         0.0703
     37 HO3'        2.6839   -0.1150    2.2479 H         1 ATP         0.4099
     38 H2'        -0.0017    0.0018    0.0005 H         1 ATP         0.0676
     39 HO2'        2.0953   -0.9375    0.0709 H         1 ATP         0.4291
     40 H1'        -0.1998   -1.6319    2.6178 H         1 ATP         0.0950
     41 H8         -0.9697   -3.6300    1.2371 H         1 ATP         0.1135
     42 HN62       -6.4060   -2.5723   -1.2840 H         1 ATP         0.3588
     43 H2         -4.8409    1.4176    0.1757 H         1 ATP         0.0302
     44 H44        -6.0768   -0.2826   -0.7263 H         1 ATP         0.4215
@<TRIPOS>BOND
     1    1    2 2
     2    1    3 1
     3    1    4 1
     4    1    8 1
     5    4   32 1
     6    5    6 2
     7    5    7 1
     8    5    8 1
     9    5   12 1
    10    9   10 2
    11    9   11 1
    12    9   12 1
    13    9   13 1
    14   13   14 1
    15   14   15 1
    16   14   33 1
    17   14   34 1
    18   15   16 1
    19   15   17 1
    20   15   35 1
    21   16   21 1
    22   17   18 1
    23   17   19 1
    24   17   36 1
    25   18   37 1
    26   19   20 1
    27   19   21 1
    28   19   38 1
    29   20   39 1
    30   21   22 1
    31   21   40 1
    32   22   23 ar
    33   22   31 ar
    34   23   24 ar
    35   23   41 1
    36   24   25 ar
    37   25   26 ar
    38   25   31 ar
    39   26   27 2
    40   26   28 ar
    41   27   42 1
    42   28   29 ar
    43   28   44 1
    44   29   30 ar
    45   29   43 1
    46   30   31 ar
@<TRIPOS>SUBSTRUCTURE
     1 ATP         1 GROUP 0 A     ****
@<TRIPOS>MOLECULE
[[[3,4-dihydroxy-5-(6-imino-1~{H}-purin-9-yl)tetrahydrofuran-2-yl]methoxy-oxido-phosphoryl]oxy-oxido-phosphoryl] hydrogen phosphate
   44    46     1     0     0
SMALL
USER_CHARGES

@<TRIPOS>ATOM
      1 PG         -1.6981    8.2820   -2.0404 P.3       1 ATP         1.5257
      2 O1G        -2.4192    9.2995   -1.1848 O.co2     1 ATP        -0.8737
      3 O2G        -2.2015    7.9329   -3.4233 O.co2     1 ATP        -0.8737
      4 O3G        -0.1291    8.7192   -2.1548 O.3       1 ATP        -0.7971
      5 PB         -2.6284    5.8461   -0.6459 P.3       1 ATP         1.6824
      6 O1B        -3.4761    6.5276    0.4050 O.co2     1 ATP        -0.8925
      7 O2B        -3.2592    5.1611   -1.8377 O.co2     1 ATP        -0.8925
      8 O3B        -1.5088    6.9060   -1.1834 O.3       1 ATP        -0.8047
      9 PA         -0.5790    5.0299    1.3261 P.3       1 ATP         1.5908
     10 O1A        -1.3655    5.3740    2.5724 O.co2     1 ATP        -0.8932
     11 O2A         0.5324    5.9337    0.8387 O.co2     1 ATP        -0.8932
     12 O3A        -1.6252    4.7920    0.0938 O.3       1 ATP        -0.8088
     13 O5'         0.0178    3.5131    1.4595 O.3       1 ATP        -0.5646
     14 C5'        -0.8811    2.4285    1.6206 C.3       1 ATP         0.2204
     15 C4'        -0.1994    1.3333    2.4288 C.3       1 ATP         0.0965
     16 O4'        -1.1285    0.2356    2.5840 O.3       1 ATP        -0.3907
     17 C3'         1.0324    0.7610    1.7344 C.3       1 ATP         0.0763
     18 O3'         1.9175    0.2377    2.7247 O.3       1 ATP        -0.5884
     19 C2'         0.4468   -0.3802    0.9263 C.3       1 ATP         0.0784
     20 O2'         1.3993   -1.3703    0.5961 O.3       1 ATP        -0.6085
     21 C1'        -0.6159   -0.9100    1.8769 C.3       1 ATP         0.2186
     22 N9         -1.7127   -1.6108    1.2130 N.pl3     1 ATP        -0.1699
     23 C8         -2.8662   -1.0361    0.7388 C.ar      1 ATP         0.4438
     24 N7         -3.6774   -1.9166    0.1867 N.2       1 ATP        -0.6280
     25 C5         -3.0159   -3.1045    0.3122 C.ar      1 ATP         0.2109
     26 C6         -3.4377   -4.4169   -0.1199 C.ar      1 ATP         0.6180
     27 N6         -4.5720   -4.5691   -0.7080 N.2       1 ATP        -0.8319
     28 N1         -2.4600   -5.3463    0.2071 N.pl3     1 ATP        -0.8664
     29 C2         -1.2595   -5.0554    0.8515 C.ar      1 ATP         0.5952
     30 N3         -0.8555   -3.8803    1.2516 N.2       1 ATP        -0.5599
     31 C4         -1.7946   -2.9457    0.9448 C.ar      1 ATP         0.0076
     32 HOG3        0.4756    8.1546   -2.6820 H         1 ATP         0.4101
     33 H5'1       -1.7771    2.7849    2.1387 H         1 ATP         0.0364
     34 H5'2       -1.1654    2.0541    0.6320 H         1 ATP         0.0364
     35 H4'         0.0403    1.7078    3.4343 H         1 ATP         0.0945
     36 H3'         1.5907    1.4859    1.1353 H         1 ATP         0.0703
     37 HO3'        2.6839   -0.1150    2.2479 H         1 ATP         0.4099
     38 H2'        -0.0017    0.0018    0.0005 H         1 ATP         0.0676
     39 HO2'        0.9369   -2.0558    0.0825 H         1 ATP         0.4291
     40 H1'        -0.1998   -1.6319    2.6178 H         1 ATP         0.0950
     41 H8         -3.0558    0.0252    0.8256 H         1 ATP         0.1135
     42 HN62       -4.7047   -5.5592   -0.9421 H         1 ATP         0.3588
     43 H2         -0.6372   -5.9505    1.0077 H         1 ATP         0.0302
     44 H44        -2.6338   -6.3155   -0.0469 H         1 ATP         0.4215
@<TRIPOS>BOND
     1    1    2 2
     2    1    3 1
     3    1    4 1
     4    1    8 1
     5    4   32 1
     6    5    6 2
     7    5    7 1
     8    5    8 1
     9    5   12 1
    10    9   10 2
    11    9   11 1
    12    9   12 1
    13    9   13 1
    14   13   14 1
    15   14   15 1
    16   14   33 1
    17   14   34 1
    18   15   16 1
    19   15   17 1
    20   15   35 1
    21   16   21 1
    22   17   18 1
    23   17   19 1
    24   17   36 1
    25   18   37 1
    26   19   20 1
    27   19   21 1
    28   19   38 1
    29   20   39 1
    30   21   22 1
    31   21   40 1
    32   22   23 ar
    33   22   31 ar
    34   23   24 ar
    35   23   41 1
    36   24   25 ar
    37   25   26 ar
    38   25   31 ar
    39   26   27 2
    40   26   28 ar
    41   27   42 1
    42   28   29 ar
    43   28   44 1
    44   29   30 ar
    45   29   43 1
    46   30   31 ar
@<TRIPOS>SUBSTRUCTURE
     1 ATP         1 GROUP 0 A     ****
@<TRIPOS>MOLECULE
[[[3,4-dihydroxy-5-(6-imino-1~{H}-purin-9-yl)tetrahydrofuran-2-yl]methoxy-oxido-phosphoryl]oxy-oxido-phosphoryl] hydrogen phosphate
   44    46     1     0     0
SMALL
USER_CHARGES

@<TRIPOS>ATOM
      1 PG         -3.0948    4.4759    5.3910 P.3       1 ATP         1.5257
      2 O1G        -2.3618    3.2605    4.8687 O.co2     1 ATP        -0.8737
      3 O2G        -4.5604    4.6907    5.0850 O.co2     1 ATP        -0.8737
      4 O3G        -2.8864    4.5519    7.0087 O.3       1 ATP        -0.7971
      5 PB         -1.9924    6.4606    3.4965 P.3       1 ATP         1.6824
      6 O1B        -3.3189    6.6354    2.7913 O.co2     1 ATP        -0.8925
      7 O2B        -1.0243    7.6135    3.6414 O.co2     1 ATP        -0.8925
      8 O3B        -2.2649    5.8174    4.9722 O.3       1 ATP        -0.8047
      9 PA         -0.5790    5.0299    1.3261 P.3       1 ATP         1.5908
     10 O1A         0.5634    6.0092    1.1642 O.co2     1 ATP        -0.8932
     11 O2A        -1.7210    5.0027    0.3337 O.co2     1 ATP        -0.8932
     12 O3A        -1.2057    5.1972    2.8258 O.3       1 ATP        -0.8088
     13 O5'         0.0178    3.5131    1.4595 O.3       1 ATP        -0.5646
     14 C5'        -0.8811    2.4285    1.6206 C.3       1 ATP         0.2204
     15 C4'        -0.1994    1.3333    2.4288 C.3       1 ATP         0.0965
     16 O4'        -1.1285    0.2356    2.5840 O.3       1 ATP        -0.3907
     17 C3'         1.0324    0.7610    1.7344 C.3       1 ATP         0.0763
     18 O3'         1.9175    0.2377    2.7247 O.3       1 ATP        -0.5884
     19 C2'         0.4468   -0.3802    0.9263 C.3       1 ATP         0.0784
     20 O2'         1.3993   -1.3703    0.5961 O.3       1 ATP        -0.6085
     21 C1'        -0.6159   -0.9100    1.8769 C.3       1 ATP         0.2186
     22 N9         -1.7127   -1.6108    1.2130 N.pl3     1 ATP        -0.1699
     23 C8         -1.7690   -2.9583    0.9549 C.ar      1 ATP         0.4438
     24 N7         -2.8827   -3.3076    0.3418 N.2       1 ATP        -0.6280
     25 C5         -3.5683   -2.1351    0.2017 C.ar      1 ATP         0.2109
     26 C6         -4.8617   -1.9185   -0.4044 C.ar      1 ATP         0.6180
     27 N6         -5.5166   -2.9094   -0.8993 N.2       1 ATP        -0.8319
     28 N1         -5.1837   -0.5701   -0.3344 N.pl3     1 ATP        -0.8664
     29 C2         -4.3821    0.4180    0.2330 C.ar      1 ATP         0.5952
     30 N3         -3.2117    0.2488    0.7860 N.2       1 ATP        -0.5599
     31 C4         -2.8672   -1.0657    0.7327 C.ar      1 ATP         0.0076
     32 HOG3       -3.3047    5.2914    7.4991 H         1 ATP         0.4101
     33 H5'1       -1.7771    2.7849    2.1387 H         1 ATP         0.0364
     34 H5'2       -1.1654    2.0541    0.6320 H         1 ATP         0.0364
     35 H4'         0.0403    1.7078    3.4343 H         1 ATP         0.0945
     36 H3'         1.5907    1.4859    1.1353 H         1 ATP         0.0703
     37 HO3'        2.1521    0.9800    3.3017 H         1 ATP         0.4099
     38 H2'        -0.0017    0.0018    0.0005 H         1 ATP         0.0676
     39 HO2'        0.9369   -2.0558    0.0825 H         1 ATP         0.4291
     40 H1'        -0.1998   -1.6319    2.6178 H         1 ATP         0.0950
     41 H8         -0.9697   -3.6300    1.2371 H         1 ATP         0.1135
     42 HN62       -6.4060   -2.5723   -1.2840 H         1 ATP         0.3588
     43 H2         -4.8409    1.4176    0.1757 H         1 ATP         0.0302
     44 H44        -6.0768   -0.2826   -0.7263 H         1 ATP         0.4215
@<TRIPOS>BOND
     1    1    2 2
     2    1    3 1
     3    1    4 1
     4    1    8 1
     5    4   32 1
     6    5    6 2
     7    5    7 1
     8    5    8 1
     9    5   12 1
    10    9   10 2
    11    9   11 1
    12    9   12 1
    13    9   13 1
    14   13   14 1
    15   14   15 1
    16   14   33 1
    17   14   34 1
    18   15   16 1
    19   15   17 1
    20   15   35 1
    21   16   21 1
    22   17   18 1
    23   17   19 1
    24   17   36 1
    25   18   37 1
    26   19   20 1
    27   19   21 1
    28   19   38 1
    29   20   39 1
    30   21   22 1
    31   21   40 1
    32   22   23 ar
    33   22   31 ar
    34   23   24 ar
    35   23   41 1
    36   24   25 ar
    37   25   26 ar
    38   25   31 ar
    39   26   27 2
    40   26   28 ar
    41   27   42 1
    42   28   29 ar
    43   28   44 1
    44   29   30 ar
    45   29   43 1
    46   30   31 ar
@<TRIPOS>SUBSTRUCTURE
     1 ATP         1 GROUP 0 A     ****
@<TRIPOS>MOLECULE
[[[3,4-dihydroxy-5-(6-imino-1~{H}-purin-9-yl)tetrahydrofuran-2-yl]methoxy-oxido-phosphoryl]oxy-oxido-phosphoryl] hydrogen phosphate
   44    46     1     0     0
SMALL
USER_CHARGES

@<TRIPOS>ATOM
      1 PG         -0.6234    4.6901    7.7239 P.3       1 ATP         1.5257
      2 O1G        -2.0712    4.9517    8.0746 O.co2     1 ATP        -0.8737
      3 O2G         0.4726    5.6128    8.2086 O.co2     1 ATP        -0.8737
      4 O3G        -0.2500    3.1637    8.1672 O.3       1 ATP        -0.7971
      5 PB         -0.7129    5.6110    4.9154 P.3       1 ATP         1.6824
      6 O1B        -2.1747    5.9970    4.8770 O.co2     1 ATP        -0.8925
      7 O2B         0.3721    6.6601    5.0135 O.co2     1 ATP        -0.8925
      8 O3B        -0.4917    4.5163    6.1064 O.3       1 ATP        -0.8047
      9 PA         -0.3962    4.9846    2.0409 P.3       1 ATP         1.5908
     10 O1A         0.7136    5.9719    1.7515 O.co2     1 ATP        -0.8932
     11 O2A        -1.8200    5.2757    1.6193 O.co2     1 ATP        -0.8932
     12 O3A        -0.3932    4.6446    3.6391 O.3       1 ATP        -0.8088
     13 O5'         0.0178    3.5131    1.4595 O.3       1 ATP        -0.5646
     14 C5'        -0.8811    2.4285    1.6206 C.3       1 ATP         0.2204
     15 C4'        -0.1994    1.3333    2.4288 C.3       1 ATP         0.0965
     16 O4'        -1.1285    0.2356    2.5840 O.3       1 ATP        -0.3907
     17 C3'         1.0324    0.7610    1.7344 C.3       1 ATP         0.0763
     18 O3'         1.9175    0.2377    2.7247 O.3       1 ATP        -0.5884
     19 C2'         0.4468   -0.3802    0.9263 C.3       1 ATP         0.0784
     20 O2'         1.3993   -1.3703    0.5961 O.3       1 ATP        -0.6085
     21 C1'        -0.6159   -0.9100    1.8769 C.3       1 ATP         0.2186
     22 N9         -1.7127   -1.6108    1.2130 N.pl3     1 ATP        -0.1699
     23 C8         -2.8662   -1.0361    0.7388 C.ar      1 ATP         0.4438
     24 N7         -3.6774   -1.9166    0.1867 N.2       1 ATP        -0.6280
     25 C5         -3.0159   -3.1045    0.3122 C.ar      1 ATP         0.2109
     26 C6         -3.4377   -4.4169   -0.1199 C.ar      1 ATP         0.6180
     27 N6         -4.5720   -4.5691   -0.7080 N.2       1 ATP        -0.8319
     28 N1         -2.4600   -5.3463    0.2071 N.pl3     1 ATP        -0.8664
     29 C2         -1.2595   -5.0554    0.8515 C.ar      1 ATP         0.5952
     30 N3         -0.8555   -3.8803    1.2516 N.2       1 ATP        -0.5599
     31 C4         -1.7946   -2.9457    0.9448 C.ar      1 ATP         0.0076
     32 HOG3        0.6617    2.8401    8.0045 H         1 ATP         0.4101
     33 H5'1       -1.7771    2.7849    2.1387 H         1 ATP         0.0364
     34 H5'2       -1.1654    2.0541    0.6320 H         1 ATP         0.0364
     35 H4'         0.0403    1.7078    3.4343 H         1 ATP         0.0945
     36 H3'         1.5907    1.4859    1.1353 H         1 ATP         0.0703
     37 HO3'        2.6839   -0.1150    2.2479 H         1 ATP         0.4099
     38 H2'        -0.0017    0.0018    0.0005 H         1 ATP         0.0676
     39 HO2'        2.0953   -0.9375    0.0709 H         1 ATP         0.4291
     40 H1'        -0.1998   -1.6319    2.6178 H         1 ATP         0.0950
     41 H8         -3.0558    0.0252    0.8256 H         1 ATP         0.1135
     42 HN62       -4.7047   -5.5592   -0.9421 H         1 ATP         0.3588
     43 H2         -0.6372   -5.9505    1.0077 H         1 ATP         0.0302
     44 H44        -2.6338   -6.3155   -0.0469 H         1 ATP         0.4215
@<TRIPOS>BOND
     1    1    2 2
     2    1    3 1
     3    1    4 1
     4    1    8 1
     5    4   32 1
     6    5    6 2
     7    5    7 1
     8    5    8 1
     9    5   12 1
    10    9   10 2
    11    9   11 1
    12    9   12 1
    13    9   13 1
    14   13   14 1
    15   14   15 1
    16   14   33 1
    17   14   34 1
    18   15   16 1
    19   15   17 1
    20   15   35 1
    21   16   21 1
    22   17   18 1
    23   17   19 1
    24   17   36 1
    25   18   37 1
    26   19   20 1
    27   19   21 1
    28   19   38 1
    29   20   39 1
    30   21   22 1
    31   21   40 1
    32   22   23 ar
    33   22   31 ar
    34   23   24 ar
    35   23   41 1
    36   24   25 ar
    37   25   26 ar
    38   25   31 ar
    39   26   27 2
    40   26   28 ar
    41   27   42 1
    42   28   29 ar
    43   28   44 1
    44   29   30 ar
    45   29   43 1
    46   30   31 ar
@<TRIPOS>SUBSTRUCTURE
     1 ATP         1 GROUP 0 A     ****
@<TRIPOS>MOLECULE
[[[3,4-dihydroxy-5-(6-imino-1~{H}-purin-9-yl)tetrahydrofuran-2-yl]methoxy-oxido-phosphoryl]oxy-oxido-phosphoryl] hydrogen phosphate
   44    46     1     0     0
SMALL
USER_CHARGES

@<TRIPOS>ATOM
      1 PG         -3.4161    6.0503   -2.9798 P.3       1 ATP         1.5257
      2 O1G        -4.6706    6.3161   -2.1779 O.co2     1 ATP        -0.8737
      3 O2G        -3.4807    5.3300   -4.3082 O.co2     1 ATP        -0.8737
      4 O3G        -2.6286    7.4644   -3.1946 O.3       1 ATP        -0.7971
      5 PB         -0.7639    4.9217   -2.3198 P.3       1 ATP         1.6824
      6 O1B        -0.7184    3.8682   -3.4041 O.co2     1 ATP        -0.8925
      7 O2B         0.0337    6.2015   -2.4370 O.co2     1 ATP        -0.8925
      8 O3B        -2.3239    5.3024   -2.0250 O.3       1 ATP        -0.8047
      9 PA         -0.4665    4.8322    0.6228 P.3       1 ATP         1.5908
     10 O1A        -1.9050    5.1497    0.9698 O.co2     1 ATP        -0.8932
     11 O2A         0.6096    5.8892    0.7429 O.co2     1 ATP        -0.8932
     12 O3A        -0.4148    4.2162   -0.8897 O.3       1 ATP        -0.8088
     13 O5'         0.0178    3.5131    1.4595 O.3       1 ATP        -0.5646
     14 C5'        -0.8811    2.4285    1.6206 C.3       1 ATP         0.2204
     15 C4'        -0.1994    1.3333    2.4288 C.3       1 ATP         0.0965
     16 O4'        -1.1285    0.2356    2.5840 O.3       1 ATP        -0.3907
     17 C3'         1.0324    0.7610    1.7344 C.3       1 ATP         0.0763
     18 O3'         1.9175    0.2377    2.7247 O.3       1 ATP        -0.5884
     19 C2'         0.4468   -0.3802    0.9263 C.3       1 ATP         0.0784
     20 O2'         1.3993   -1.3703    0.5961 O.3       1 ATP        -0.6085
     21 C1'        -0.6159   -0.9100    1.8769 C.3       1 ATP         0.2186
     22 N9         -1.7127   -1.6108    1.2130 N.pl3     1 ATP        -0.1699
     23 C8         -1.7690   -2.9583    0.9549 C.ar      1 ATP         0.4438
     24 N7         -2.8827   -3.3076    0.3418 N.2       1 ATP        -0.6280
     25 C5         -3.5683   -2.1351    0.2017 C.ar      1 ATP         0.2109
     26 C6         -4.8617   -1.9185   -0.4044 C.ar      1 ATP         0.6180
     27 N6         -5.5166   -2.9094   -0.8993 N.2       1 ATP        -0.8319
     28 N1         -5.1837   -0.5701   -0.3344 N.pl3     1 ATP        -0.8664
     29 C2         -4.3821    0.4180    0.2330 C.ar      1 ATP         0.5952
     30 N3         -3.2117    0.2488    0.7860 N.2       1 ATP        -0.5599
     31 C4         -2.8672   -1.0657    0.7327 C.ar      1 ATP         0.0076
     32 HOG3       -1.7880    7.4585   -3.7003 H         1 ATP         0.4101
     33 H5'1       -1.7771    2.7849    2.1387 H         1 ATP         0.0364
     34 H5'2       -1.1654    2.0541    0.6320 H         1 ATP         0.0364
     35 H4'         0.0403    1.7078    3.4343 H         1 ATP         0.0945
     36 H3'         1.5907    1.4859    1.1353 H         1 ATP         0.0703
     37 HO3'        2.6839   -0.1150    2.2479 H         1 ATP         0.4099
     38 H2'        -0.0017    0.0018    0.0005 H         1 ATP         0.0676
     39 HO2'        2.0953   -0.9375    0.0709 H         1 ATP         0.4291
     40 H1'        -0.1998   -1.6319    2.6178 H         1 ATP         0.0950
     41 H8         -0.9697   -3.6300    1.2371 H         1 ATP         0.1135
     42 HN62       -6.4060   -2.5723   -1.2840 H         1 ATP         0.3588
     43 H2         -4.8409    1.4176    0.1757 H         1 ATP         0.0302
     44 H44        -6.0768   -0.2826   -0.7263 H         1 ATP         0.4215
@<TRIPOS>BOND
     1    1    2 2
     2    1    3 1
     3    1    4 1
     4    1    8 1
     5    4   32 1
     6    5    6 2
     7    5    7 1
     8    5    8 1
     9    5   12 1
    10    9   10 2
    11    9   11 1
    12    9   12 1
    13    9   13 1
    14   13   14 1
    15   14   15 1
    16   14   33 1
    17   14   34 1
    18   15   16 1
    19   15   17 1
    20   15   35 1
    21   16   21 1
    22   17   18 1
    23   17   19 1
    24   17   36 1
    25   18   37 1
    26   19   20 1
    27   19   21 1
    28   19   38 1
    29   20   39 1
    30   21   22 1
    31   21   40 1
    32   22   23 ar
    33   22   31 ar
    34   23   24 ar
    35   23   41 1
    36   24   25 ar
    37   25   26 ar
    38   25   31 ar
    39   26   27 2
    40   26   28 ar
    41   27   42 1
    42   28   29 ar
    43   28   44 1
    44   29   30 ar
    45   29   43 1
    46   30   31 ar
@<TRIPOS>SUBSTRUCTURE
     1 ATP         1 GROUP 0 A     ****
@<TRIPOS>MOLECULE
[[[3,4-dihydroxy-5-(6-imino-1~{H}-purin-9-yl)tetrahydrofuran-2-yl]methoxy-oxido-phosphoryl]oxy-oxido-phosphoryl] hydrogen phosphate
   44    46     1     0     0
SMALL
USER_CHARGES

@<TRIPOS>ATOM
      1 PG          6.1373    1.5562   -4.1609 P.3       1 ATP         1.5257
      2 O1G         4.7013    1.2369   -4.5122 O.co2     1 ATP        -0.8737
      3 O2G         6.8662    0.7789   -3.0875 O.co2     1 ATP        -0.8737
      4 O3G         7.0281    1.5117   -5.5285 O.3       1 ATP        -0.7971
      5 PB          5.6366    4.0202   -2.6046 P.3       1 ATP         1.6824
      6 O1B         6.1897    5.4262   -2.6730 O.co2     1 ATP        -0.8925
      7 O2B         4.1469    3.7666   -2.5403 O.co2     1 ATP        -0.8925
      8 O3B         6.2628    3.1509   -3.8366 O.3       1 ATP        -0.8047
      9 PA          6.2486    3.4952    0.2423 P.3       1 ATP         1.5908
     10 O1A         6.5935    4.9413    0.5251 O.co2     1 ATP        -0.8932
     11 O2A         6.9728    2.3737    0.9547 O.co2     1 ATP        -0.8932
     12 O3A         6.3554    3.2347   -1.3672 O.3       1 ATP        -0.8088
     13 O5'         4.6405    3.2699    0.4378 O.3       1 ATP        -0.5646
     14 C5'         4.0922    1.9801    0.2227 C.3       1 ATP         0.2204
     15 C4'         2.5944    2.0310    0.4653 C.3       1 ATP         0.0965
     16 O4'         1.9327    2.5740   -0.6889 O.3       1 ATP        -0.3907
     17 C3'         1.9685    0.6634    0.6767 C.3       1 ATP         0.0763
     18 O3'         2.1425    0.1975    1.9977 O.3       1 ATP        -0.5884
     19 C2'         0.5176    0.9128    0.3099 C.3       1 ATP         0.0784
     20 O2'        -0.2103    1.4454    1.4152 O.3       1 ATP        -0.6085
     21 C1'         0.6219    1.9765   -0.7844 C.3       1 ATP         0.2186
     22 N9          0.4237    1.4496   -2.1357 N.pl3     1 ATP        -0.1699
     23 C8          1.4069    0.9710   -2.9662 C.ar      1 ATP         0.4438
     24 N7          0.9316    0.5623   -4.1260 N.2       1 ATP        -0.6280
     25 C5         -0.4120    0.7884   -4.0344 C.ar      1 ATP         0.2109
     26 C6         -1.4353    0.5283   -5.0204 C.ar      1 ATP         0.6180
     27 N6         -1.1199    0.0176   -6.1586 N.2       1 ATP        -0.8319
     28 N1         -2.6704    0.9095   -4.5147 N.pl3     1 ATP        -0.8664
     29 C2         -2.8863    1.4571   -3.2520 C.ar      1 ATP         0.5952
     30 N3         -1.9805    1.7017   -2.3442 N.2       1 ATP        -0.5599
     31 C4         -0.7561    1.3381   -2.8112 C.ar      1 ATP         0.0076
     32 HOG3        7.9890    1.6990   -5.4662 H         1 ATP         0.4101
     33 H5'1        4.3028    1.6728   -0.8066 H         1 ATP         0.0364
     34 H5'2        4.5677    1.2738    0.9106 H         1 ATP         0.0364
     35 H4'         2.3752    2.7029    1.3156 H         1 ATP         0.0945
     36 H3'         2.4336   -0.1217   -0.0015 H         1 ATP         0.0703
     37 HO3'        1.7160   -0.6716    2.0397 H         1 ATP         0.4099
     38 H2'         0.0316    0.0155   -0.0339 H         1 ATP         0.0676
     39 HO2'       -0.1608    0.7921    2.1351 H         1 ATP         0.4291
     40 H1'        -0.1474    2.7798   -0.6651 H         1 ATP         0.0950
     41 H8          2.4466    0.9468   -2.6694 H         1 ATP         0.1135
     42 HN62       -1.9661   -0.0965   -6.7275 H         1 ATP         0.3588
     43 H2         -3.9481    1.6825   -3.0660 H         1 ATP         0.0302
     44 H44        -3.4814    0.7753   -5.1133 H         1 ATP         0.4215
@<TRIPOS>BOND
     1    1    2 2
     2    1    3 1
     3    1    4 1
     4    1    8 1
     5    4   32 1
     6    5    6 2
     7    5    7 1
     8    5    8 1
     9    5   12 1
    10    9   10 2
    11    9   11 1
    12    9   12 1
    13    9   13 1
    14   13   14 1
    15   14   15 1
    16   14   33 1
    17   14   34 1
    18   15   16 1
    19   15   17 1
    20   15   35 1
    21   16   21 1
    22   17   18 1
    23   17   19 1
    24   17   36 1
    25   18   37 1
    26   19   20 1
    27   19   21 1
    28   19   38 1
    29   20   39 1
    30   21   22 1
    31   21   40 1
    32   22   23 ar
    33   22   31 ar
    34   23   24 ar
    35   23   41 1
    36   24   25 ar
    37   25   26 ar
    38   25   31 ar
    39   26   27 2
    40   26   28 ar
    41   27   42 1
    42   28   29 ar
    43   28   44 1
    44   29   30 ar
    45   29   43 1
    46   30   31 ar
@<TRIPOS>SUBSTRUCTURE
     1 ATP         1 GROUP 0 A     ****
@<TRIPOS>MOLECULE
[[[3,4-dihydroxy-5-(6-imino-1~{H}-purin-9-yl)tetrahydrofuran-2-yl]methoxy-oxido-phosphoryl]oxy-oxido-phosphoryl] hydrogen phosphate
   44    46     1     0     0
SMALL
USER_CHARGES

@<TRIPOS>ATOM
      1 PG         -4.9231    4.3934    0.5187 P.3       1 ATP         1.5257
      2 O1G        -5.8512    4.5037    1.7078 O.co2     1 ATP        -0.8737
      3 O2G        -3.9894    3.2131    0.3682 O.co2     1 ATP        -0.8737
      4 O3G        -5.8096    4.5303   -0.8456 O.3       1 ATP        -0.7971
      5 PB         -2.9172    6.3868    1.3826 P.3       1 ATP         1.6824
      6 O1B        -2.3047    7.6020    0.7226 O.co2     1 ATP        -0.8925
      7 O2B        -3.4805    6.4570    2.7845 O.co2     1 ATP        -0.8925
      8 O3B        -4.0584    5.7716    0.3901 O.3       1 ATP        -0.8047
      9 PA         -0.3962    4.9846    2.0409 P.3       1 ATP         1.5908
     10 O1A        -0.6131    4.8935    3.5359 O.co2     1 ATP        -0.8932
     11 O2A         0.5545    6.0074    1.4581 O.co2     1 ATP        -0.8932
     12 O3A        -1.8470    5.1563    1.3092 O.3       1 ATP        -0.8088
     13 O5'         0.0178    3.5131    1.4595 O.3       1 ATP        -0.5646
     14 C5'        -0.8811    2.4285    1.6206 C.3       1 ATP         0.2204
     15 C4'        -0.1994    1.3333    2.4288 C.3       1 ATP         0.0965
     16 O4'        -1.1285    0.2356    2.5840 O.3       1 ATP        -0.3907
     17 C3'         1.0324    0.7610    1.7344 C.3       1 ATP         0.0763
     18 O3'         1.9175    0.2377    2.7247 O.3       1 ATP        -0.5884
     19 C2'         0.4468   -0.3802    0.9263 C.3       1 ATP         0.0784
     20 O2'         1.3993   -1.3703    0.5961 O.3       1 ATP        -0.6085
     21 C1'        -0.6159   -0.9100    1.8769 C.3       1 ATP         0.2186
     22 N9         -1.7127   -1.6108    1.2130 N.pl3     1 ATP        -0.1699
     23 C8         -2.8662   -1.0361    0.7388 C.ar      1 ATP         0.4438
     24 N7         -3.6774   -1.9166    0.1867 N.2       1 ATP        -0.6280
     25 C5         -3.0159   -3.1045    0.3122 C.ar      1 ATP         0.2109
     26 C6         -3.4377   -4.4169   -0.1199 C.ar      1 ATP         0.6180
     27 N6         -4.5720   -4.5691   -0.7080 N.2       1 ATP        -0.8319
     28 N1         -2.4600   -5.3463    0.2071 N.pl3     1 ATP        -0.8664
     29 C2         -1.2595   -5.0554    0.8515 C.ar      1 ATP         0.5952
     30 N3         -0.8555   -3.8803    1.2516 N.2       1 ATP        -0.5599
     31 C4         -1.7946   -2.9457    0.9448 C.ar      1 ATP         0.0076
     32 HOG3       -5.3479    4.4789   -1.7096 H         1 ATP         0.4101
     33 H5'1       -1.7771    2.7849    2.1387 H         1 ATP         0.0364
     34 H5'2       -1.1654    2.0541    0.6320 H         1 ATP         0.0364
     35 H4'         0.0403    1.7078    3.4343 H         1 ATP         0.0945
     36 H3'         1.5907    1.4859    1.1353 H         1 ATP         0.0703
     37 HO3'        2.6839   -0.1150    2.2479 H         1 ATP         0.4099
     38 H2'        -0.0017    0.0018    0.0005 H         1 ATP         0.0676
     39 HO2'        0.9369   -2.0558    0.0825 H         1 ATP         0.4291
     40 H1'        -0.1998   -1.6319    2.6178 H         1 ATP         0.0950
     41 H8         -3.0558    0.0252    0.8256 H         1 ATP         0.1135
     42 HN62       -4.7047   -5.5592   -0.9421 H         1 ATP         0.3588
     43 H2         -0.6372   -5.9505    1.0077 H         1 ATP         0.0302
     44 H44        -2.6338   -6.3155   -0.0469 H         1 ATP         0.4215
@<TRIPOS>BOND
     1    1    2 2
     2    1    3 1
     3    1    4 1
     4    1    8 1
     5    4   32 1
     6    5    6 2
     7    5    7 1
     8    5    8 1
     9    5   12 1
    10    9   10 2
    11    9   11 1
    12    9   12 1
    13    9   13 1
    14   13   14 1
    15   14   15 1
    16   14   33 1
    17   14   34 1
    18   15   16 1
    19   15   17 1
    20   15   35 1
    21   16   21 1
    22   17   18 1
    23   17   19 1
    24   17   36 1
    25   18   37 1
    26   19   20 1
    27   19   21 1
    28   19   38 1
    29   20   39 1
    30   21   22 1
    31   21   40 1
    32   22   23 ar
    33   22   31 ar
    34   23   24 ar
    35   23   41 1
    36   24   25 ar
    37   25   26 ar
    38   25   31 ar
    39   26   27 2
    40   26   28 ar
    41   27   42 1
    42   28   29 ar
    43   28   44 1
    44   29   30 ar
    45   29   43 1
    46   30   31 ar
@<TRIPOS>SUBSTRUCTURE
     1 ATP         1 GROUP 0 A     ****
@<TRIPOS>MOLECULE
[[[3,4-dihydroxy-5-(6-imino-1~{H}-purin-9-yl)tetrahydrofuran-2-yl]methoxy-oxido-phosphoryl]oxy-oxido-phosphoryl] hydrogen phosphate
   44    46     1     0     0
SMALL
USER_CHARGES

@<TRIPOS>ATOM
      1 PG         -4.5187    7.5650    2.4280 P.3       1 ATP         1.5257
      2 O1G        -5.4900    7.1149    1.3597 O.co2     1 ATP        -0.8737
      3 O2G        -4.0041    8.9870    2.4614 O.co2     1 ATP        -0.8737
      4 O3G        -5.1535    7.2090    3.8895 O.3       1 ATP        -0.7971
      5 PB         -1.9924    6.4606    3.4965 P.3       1 ATP         1.6824
      6 O1B        -1.1448    7.7023    3.3318 O.co2     1 ATP        -0.8925
      7 O2B        -2.5141    6.0425    4.8532 O.co2     1 ATP        -0.8925
      8 O3B        -3.2475    6.5418    2.4554 O.3       1 ATP        -0.8047
      9 PA         -0.5790    5.0299    1.3261 P.3       1 ATP         1.5908
     10 O1A         0.5634    6.0092    1.1642 O.co2     1 ATP        -0.8932
     11 O2A        -1.7210    5.0027    0.3337 O.co2     1 ATP        -0.8932
     12 O3A        -1.2057    5.1972    2.8258 O.3       1 ATP        -0.8088
     13 O5'         0.0178    3.5131    1.4595 O.3       1 ATP        -0.5646
     14 C5'        -0.8811    2.4285    1.6206 C.3       1 ATP         0.2204
     15 C4'        -0.1994    1.3333    2.4288 C.3       1 ATP         0.0965
     16 O4'        -1.1285    0.2356    2.5840 O.3       1 ATP        -0.3907
     17 C3'         1.0324    0.7610    1.7344 C.3       1 ATP         0.0763
     18 O3'         1.9175    0.2377    2.7247 O.3       1 ATP        -0.5884
     19 C2'         0.4468   -0.3802    0.9263 C.3       1 ATP         0.0784
     20 O2'         1.3993   -1.3703    0.5961 O.3       1 ATP        -0.6085
     21 C1'        -0.6159   -0.9100    1.8769 C.3       1 ATP         0.2186
     22 N9         -1.7127   -1.6108    1.2130 N.pl3     1 ATP        -0.1699
     23 C8         -2.8662   -1.0361    0.7388 C.ar      1 ATP         0.4438
     24 N7         -3.6774   -1.9166    0.1867 N.2       1 ATP        -0.6280
     25 C5         -3.0159   -3.1045    0.3122 C.ar      1 ATP         0.2109
     26 C6         -3.4377   -4.4169   -0.1199 C.ar      1 ATP         0.6180
     27 N6         -4.5720   -4.5691   -0.7080 N.2       1 ATP        -0.8319
     28 N1         -2.4600   -5.3463    0.2071 N.pl3     1 ATP        -0.8664
     29 C2         -1.2595   -5.0554    0.8515 C.ar      1 ATP         0.5952
     30 N3         -0.8555   -3.8803    1.2516 N.2       1 ATP        -0.5599
     31 C4         -1.7946   -2.9457    0.9448 C.ar      1 ATP         0.0076
     32 HOG3       -4.6384    7.4411    4.6914 H         1 ATP         0.4101
     33 H5'1       -1.7771    2.7849    2.1387 H         1 ATP         0.0364
     34 H5'2       -1.1654    2.0541    0.6320 H         1 ATP         0.0364
     35 H4'         0.0403    1.7078    3.4343 H         1 ATP         0.0945
     36 H3'         1.5907    1.4859    1.1353 H         1 ATP         0.0703
     37 HO3'        2.6839   -0.1150    2.2479 H         1 ATP         0.4099
     38 H2'        -0.0017    0.0018    0.0005 H         1 ATP         0.0676
     39 HO2'        2.0953   -0.9375    0.0709 H         1 ATP         0.4291
     40 H1'        -0.1998   -1.6319    2.6178 H         1 ATP         0.0950
     41 H8         -3.0558    0.0252    0.8256 H         1 ATP         0.1135
     42 HN62       -4.7047   -5.5592   -0.9421 H         1 ATP         0.3588
     43 H2         -0.6372   -5.9505    1.0077 H         1 ATP         0.0302
     44 H44        -2.6338   -6.3155   -0.0469 H         1 ATP         0.4215
@<TRIPOS>BOND
     1    1    2 2
     2    1    3 1
     3    1    4 1
     4    1    8 1
     5    4   32 1
     6    5    6 2
     7    5    7 1
     8    5    8 1
     9    5   12 1
    10    9   10 2
    11    9   11 1
    12    9   12 1
    13    9   13 1
    14   13   14 1
    15   14   15 1
    16   14   33 1
    17   14   34 1
    18   15   16 1
    19   15   17 1
    20   15   35 1
    21   16   21 1
    22   17   18 1
    23   17   19 1
    24   17   36 1
    25   18   37 1
    26   19   20 1
    27   19   21 1
    28   19   38 1
    29   20   39 1
    30   21   22 1
    31   21   40 1
    32   22   23 ar
    33   22   31 ar
    34   23   24 ar
    35   23   41 1
    36   24   25 ar
    37   25   26 ar
    38   25   31 ar
    39   26   27 2
    40   26   28 ar
    41   27   42 1
    42   28   29 ar
    43   28   44 1
    44   29   30 ar
    45   29   43 1
    46   30   31 ar
@<TRIPOS>SUBSTRUCTURE
     1 ATP         1 GROUP 0 A     ****
@<TRIPOS>MOLECULE
[[[3,4-dihydroxy-5-(6-imino-1~{H}-purin-9-yl)tetrahydrofuran-2-yl]methoxy-oxido-phosphoryl]oxy-oxido-phosphoryl] hydrogen phosphate
   44    46     1     0     0
SMALL
USER_CHARGES

@<TRIPOS>ATOM
      1 PG         -2.4958    7.6633   -1.9037 P.3       1 ATP         1.5257
      2 O1G        -3.7072    8.5289   -1.6378 O.co2     1 ATP        -0.8737
      3 O2G        -2.2940    7.0007   -3.2483 O.co2     1 ATP        -0.8737
      4 O3G        -1.1551    8.5225   -1.5427 O.3       1 ATP        -0.7971
      5 PB         -2.3698    6.7018    0.8897 P.3       1 ATP         1.6824
      6 O1B        -1.0971    7.4141    1.2902 O.co2     1 ATP        -0.8925
      7 O2B        -3.7238    7.2063    1.3369 O.co2     1 ATP        -0.8925
      8 O3B        -2.3852    6.5306   -0.7339 O.3       1 ATP        -0.8047
      9 PA         -2.1561    4.4278    2.7707 P.3       1 ATP         1.5908
     10 O1A        -3.4710    4.6479    3.4867 O.co2     1 ATP        -0.8932
     11 O2A        -0.8475    4.8296    3.4155 O.co2     1 ATP        -0.8932
     12 O3A        -2.2377    5.1262    1.2959 O.3       1 ATP        -0.8088
     13 O5'        -2.0401    2.8620    2.3128 O.3       1 ATP        -0.5646
     14 C5'        -0.8811    2.4285    1.6206 C.3       1 ATP         0.2204
     15 C4'        -0.1994    1.3333    2.4288 C.3       1 ATP         0.0965
     16 O4'        -1.1285    0.2356    2.5840 O.3       1 ATP        -0.3907
     17 C3'         1.0324    0.7610    1.7344 C.3       1 ATP         0.0763
     18 O3'         1.9175    0.2377    2.7247 O.3       1 ATP        -0.5884
     19 C2'         0.4468   -0.3802    0.9263 C.3       1 ATP         0.0784
     20 O2'         1.3993   -1.3703    0.5961 O.3       1 ATP        -0.6085
     21 C1'        -0.6159   -0.9100    1.8769 C.3       1 ATP         0.2186
     22 N9         -1.7127   -1.6108    1.2130 N.pl3     1 ATP        -0.1699
     23 C8         -2.8662   -1.0361    0.7388 C.ar      1 ATP         0.4438
     24 N7         -3.6774   -1.9166    0.1867 N.2       1 ATP        -0.6280
     25 C5         -3.0159   -3.1045    0.3122 C.ar      1 ATP         0.2109
     26 C6         -3.4377   -4.4169   -0.1199 C.ar      1 ATP         0.6180
     27 N6         -4.5720   -4.5691   -0.7080 N.2       1 ATP        -0.8319
     28 N1         -2.4600   -5.3463    0.2071 N.pl3     1 ATP        -0.8664
     29 C2         -1.2595   -5.0554    0.8515 C.ar      1 ATP         0.5952
     30 N3         -0.8555   -3.8803    1.2516 N.2       1 ATP        -0.5599
     31 C4         -1.7946   -2.9457    0.9448 C.ar      1 ATP         0.0076
     32 HOG3       -0.2803    8.0954   -1.6634 H         1 ATP         0.4101
     33 H5'1       -1.1767    2.0502    0.6368 H         1 ATP         0.0364
     34 H5'2       -0.2080    3.2814    1.4876 H         1 ATP         0.0364
     35 H4'         0.0403    1.7078    3.4343 H         1 ATP         0.0945
     36 H3'         1.5907    1.4859    1.1353 H         1 ATP         0.0703
     37 HO3'        2.6839   -0.1150    2.2479 H         1 ATP         0.4099
     38 H2'        -0.0017    0.0018    0.0005 H         1 ATP         0.0676
     39 HO2'        2.0953   -0.9375    0.0709 H         1 ATP         0.4291
     40 H1'        -0.1998   -1.6319    2.6178 H         1 ATP         0.0950
     41 H8         -3.0558    0.0252    0.8256 H         1 ATP         0.1135
     42 HN62       -4.7047   -5.5592   -0.9421 H         1 ATP         0.3588
     43 H2         -0.6372   -5.9505    1.0077 H         1 ATP         0.0302
     44 H44        -2.6338   -6.3155   -0.0469 H         1 ATP         0.4215
@<TRIPOS>BOND
     1    1    2 2
     2    1    3 1
     3    1    4 1
     4    1    8 1
     5    4   32 1
     6    5    6 2
     7    5    7 1
     8    5    8 1
     9    5   12 1
    10    9   10 2
    11    9   11 1
    12    9   12 1
    13    9   13 1
    14   13   14 1
    15   14   15 1
    16   14   33 1
    17   14   34 1
    18   15   16 1
    19   15   17 1
    20   15   35 1
    21   16   21 1
    22   17   18 1
    23   17   19 1
    24   17   36 1
    25   18   37 1
    26   19   20 1
    27   19   21 1
    28   19   38 1
    29   20   39 1
    30   21   22 1
    31   21   40 1
    32   22   23 ar
    33   22   31 ar
    34   23   24 ar
    35   23   41 1
    36   24   25 ar
    37   25   26 ar
    38   25   31 ar
    39   26   27 2
    40   26   28 ar
    41   27   42 1
    42   28   29 ar
    43   28   44 1
    44   29   30 ar
    45   29   43 1
    46   30   31 ar
@<TRIPOS>SUBSTRUCTURE
     1 ATP         1 GROUP 0 A     ****
@<TRIPOS>MOLECULE
[[[3,4-dihydroxy-5-(6-imino-1~{H}-purin-9-yl)tetrahydrofuran-2-yl]methoxy-oxido-phosphoryl]oxy-oxido-phosphoryl] hydrogen phosphate
   44    46     1     0     0
SMALL
USER_CHARGES

@<TRIPOS>ATOM
      1 PG         -3.2920    3.7624   -2.3776 P.3       1 ATP         1.5257
      2 O1G        -3.2922    2.2614   -2.5628 O.co2     1 ATP        -0.8737
      3 O2G        -1.9983    4.5214   -2.1829 O.co2     1 ATP        -0.8737
      4 O3G        -4.1077    4.4384   -3.6200 O.3       1 ATP        -0.7971
      5 PB         -4.2227    3.8257    0.4283 P.3       1 ATP         1.6824
      6 O1B        -5.3447    4.5505    1.1379 O.co2     1 ATP        -0.8925
      7 O2B        -4.0117    2.3392    0.6107 O.co2     1 ATP        -0.8925
      8 O3B        -4.3188    4.1486   -1.1692 O.3       1 ATP        -0.8047
      9 PA         -2.0037    4.7528    2.1522 P.3       1 ATP         1.5908
     10 O1A        -2.9381    5.3281    3.1945 O.co2     1 ATP        -0.8932
     11 O2A        -0.6722    5.4096    1.8602 O.co2     1 ATP        -0.8932
     12 O3A        -2.8191    4.5967    0.7449 O.3       1 ATP        -0.8088
     13 O5'        -1.7336    3.1724    2.4750 O.3       1 ATP        -0.5646
     14 C5'        -0.8811    2.4285    1.6206 C.3       1 ATP         0.2204
     15 C4'        -0.1994    1.3333    2.4288 C.3       1 ATP         0.0965
     16 O4'        -1.1285    0.2356    2.5840 O.3       1 ATP        -0.3907
     17 C3'         1.0324    0.7610    1.7344 C.3       1 ATP         0.0763
     18 O3'         1.9175    0.2377    2.7247 O.3       1 ATP        -0.5884
     19 C2'         0.4468   -0.3802    0.9263 C.3       1 ATP         0.0784
     20 O2'         1.3993   -1.3703    0.5961 O.3       1 ATP        -0.6085
     21 C1'        -0.6159   -0.9100    1.8769 C.3       1 ATP         0.2186
     22 N9         -1.7127   -1.6108    1.2130 N.pl3     1 ATP        -0.1699
     23 C8         -2.5485   -1.0808    0.2609 C.ar      1 ATP         0.4438
     24 N7         -3.4476   -1.9486   -0.1593 N.2       1 ATP        -0.6280
     25 C5         -3.1762   -3.0816    0.5530 C.ar      1 ATP         0.2109
     26 C6         -3.8510   -4.3579    0.5006 C.ar      1 ATP         0.6180
     27 N6         -4.8468   -4.5293   -0.2961 N.2       1 ATP        -0.8319
     28 N1         -3.2499   -5.2342    1.3937 N.pl3     1 ATP        -0.8664
     29 C2         -2.1646   -4.9275    2.2116 C.ar      1 ATP         0.5952
     30 N3         -1.5382   -3.7840    2.2778 N.2       1 ATP        -0.5599
     31 C4         -2.1054   -2.9018    1.4120 C.ar      1 ATP         0.0076
     32 HOG3       -4.1965    5.4151   -3.6439 H         1 ATP         0.4101
     33 H5'1       -1.4800    1.9927    0.8146 H         1 ATP         0.0364
     34 H5'2       -0.1367    3.1040    1.1872 H         1 ATP         0.0364
     35 H4'         0.0403    1.7078    3.4343 H         1 ATP         0.0945
     36 H3'         1.5907    1.4859    1.1353 H         1 ATP         0.0703
     37 HO3'        2.6839   -0.1150    2.2479 H         1 ATP         0.4099
     38 H2'        -0.0017    0.0018    0.0005 H         1 ATP         0.0676
     39 HO2'        2.0953   -0.9375    0.0709 H         1 ATP         0.4291
     40 H1'        -0.1998   -1.6319    2.6178 H         1 ATP         0.0950
     41 H8         -2.4515   -0.0599   -0.0829 H         1 ATP         0.1135
     42 HN62       -5.1990   -5.4882   -0.2005 H         1 ATP         0.3588
     43 H2         -1.8555   -5.7783    2.8388 H         1 ATP         0.0302
     44 H44        -3.6312   -6.1750    1.4526 H         1 ATP         0.4215
@<TRIPOS>BOND
     1    1    2 2
     2    1    3 1
     3    1    4 1
     4    1    8 1
     5    4   32 1
     6    5    6 2
     7    5    7 1
     8    5    8 1
     9    5   12 1
    10    9   10 2
    11    9   11 1
    12    9   12 1
    13    9   13 1
    14   13   14 1
    15   14   15 1
    16   14   33 1
    17   14   34 1
    18   15   16 1
    19   15   17 1
    20   15   35 1
    21   16   21 1
    22   17   18 1
    23   17   19 1
    24   17   36 1
    25   18   37 1
    26   19   20 1
    27   19   21 1
    28   19   38 1
    29   20   39 1
    30   21   22 1
    31   21   40 1
    32   22   23 ar
    33   22   31 ar
    34   23   24 ar
    35   23   41 1
    36   24   25 ar
    37   25   26 ar
    38   25   31 ar
    39   26   27 2
    40   26   28 ar
    41   27   42 1
    42   28   29 ar
    43   28   44 1
    44   29   30 ar
    45   29   43 1
    46   30   31 ar
@<TRIPOS>SUBSTRUCTURE
     1 ATP         1 GROUP 0 A     ****
@<TRIPOS>MOLECULE
[[[3,4-dihydroxy-5-(6-imino-1~{H}-purin-9-yl)tetrahydrofuran-2-yl]methoxy-oxido-phosphoryl]oxy-oxido-phosphoryl] hydrogen phosphate
   44    46     1     0     0
SMALL
USER_CHARGES

@<TRIPOS>ATOM
      1 PG         -4.0178    4.9936   -3.2263 P.3       1 ATP         1.5257
      2 O1G        -4.7312    6.3229   -3.1180 O.co2     1 ATP        -0.8737
      3 O2G        -4.6562    3.8251   -3.9436 O.co2     1 ATP        -0.8737
      4 O3G        -2.5381    5.2498   -3.8673 O.3       1 ATP        -0.7971
      5 PB         -4.4707    4.0626   -0.4565 P.3       1 ATP         1.6824
      6 O1B        -5.2444    5.2654    0.0357 O.co2     1 ATP        -0.8925
      7 O2B        -5.1709    2.7649   -0.7929 O.co2     1 ATP        -0.8925
      8 O3B        -3.5607    4.5131   -1.7350 O.3       1 ATP        -0.8047
      9 PA         -3.3347    3.2338    2.1468 P.3       1 ATP         1.5908
     10 O1A        -3.9081    1.8334    2.1683 O.co2     1 ATP        -0.8932
     11 O2A        -3.9472    4.3334    2.9866 O.co2     1 ATP        -0.8932
     12 O3A        -3.2646    3.7490    0.5978 O.3       1 ATP        -0.8088
     13 O5'        -1.7336    3.1724    2.4750 O.3       1 ATP        -0.5646
     14 C5'        -0.8811    2.4285    1.6206 C.3       1 ATP         0.2204
     15 C4'        -0.1994    1.3333    2.4288 C.3       1 ATP         0.0965
     16 O4'        -1.1285    0.2356    2.5840 O.3       1 ATP        -0.3907
     17 C3'         1.0324    0.7610    1.7344 C.3       1 ATP         0.0763
     18 O3'         1.9175    0.2377    2.7247 O.3       1 ATP        -0.5884
     19 C2'         0.4468   -0.3802    0.9263 C.3       1 ATP         0.0784
     20 O2'         1.3993   -1.3703    0.5961 O.3       1 ATP        -0.6085
     21 C1'        -0.6159   -0.9100    1.8769 C.3       1 ATP         0.2186
     22 N9         -1.7127   -1.6108    1.2130 N.pl3     1 ATP        -0.1699
     23 C8         -2.5485   -1.0808    0.2609 C.ar      1 ATP         0.4438
     24 N7         -3.4476   -1.9486   -0.1593 N.2       1 ATP        -0.6280
     25 C5         -3.1762   -3.0816    0.5530 C.ar      1 ATP         0.2109
     26 C6         -3.8510   -4.3579    0.5006 C.ar      1 ATP         0.6180
     27 N6         -4.8468   -4.5293   -0.2961 N.2       1 ATP        -0.8319
     28 N1         -3.2499   -5.2342    1.3937 N.pl3     1 ATP        -0.8664
     29 C2         -2.1646   -4.9275    2.2116 C.ar      1 ATP         0.5952
     30 N3         -1.5382   -3.7840    2.2778 N.2       1 ATP        -0.5599
     31 C4         -2.1054   -2.9018    1.4120 C.ar      1 ATP         0.0076
     32 HOG3       -1.9478    4.4780   -4.0022 H         1 ATP         0.4101
     33 H5'1       -1.4800    1.9927    0.8146 H         1 ATP         0.0364
     34 H5'2       -0.1367    3.1040    1.1872 H         1 ATP         0.0364
     35 H4'         0.0403    1.7078    3.4343 H         1 ATP         0.0945
     36 H3'         1.5907    1.4859    1.1353 H         1 ATP         0.0703
     37 HO3'        2.1521    0.9800    3.3017 H         1 ATP         0.4099
     38 H2'        -0.0017    0.0018    0.0005 H         1 ATP         0.0676
     39 HO2'        0.9369   -2.0558    0.0825 H         1 ATP         0.4291
     40 H1'        -0.1998   -1.6319    2.6178 H         1 ATP         0.0950
     41 H8         -2.4515   -0.0599   -0.0829 H         1 ATP         0.1135
     42 HN62       -5.1990   -5.4882   -0.2005 H         1 ATP         0.3588
     43 H2         -1.8555   -5.7783    2.8388 H         1 ATP         0.0302
     44 H44        -3.6312   -6.1750    1.4526 H         1 ATP         0.4215
@<TRIPOS>BOND
     1    1    2 2
     2    1    3 1
     3    1    4 1
     4    1    8 1
     5    4   32 1
     6    5    6 2
     7    5    7 1
     8    5    8 1
     9    5   12 1
    10    9   10 2
    11    9   11 1
    12    9   12 1
    13    9   13 1
    14   13   14 1
    15   14   15 1
    16   14   33 1
    17   14   34 1
    18   15   16 1
    19   15   17 1
    20   15   35 1
    21   16   21 1
    22   17   18 1
    23   17   19 1
    24   17   36 1
    25   18   37 1
    26   19   20 1
    27   19   21 1
    28   19   38 1
    29   20   39 1
    30   21   22 1
    31   21   40 1
    32   22   23 ar
    33   22   31 ar
    34   23   24 ar
    35   23   41 1
    36   24   25 ar
    37   25   26 ar
    38   25   31 ar
    39   26   27 2
    40   26   28 ar
    41   27   42 1
    42   28   29 ar
    43   28   44 1
    44   29   30 ar
    45   29   43 1
    46   30   31 ar
@<TRIPOS>SUBSTRUCTURE
     1 ATP         1 GROUP 0 A     ****
@<TRIPOS>MOLECULE
[[[3,4-dihydroxy-5-(6-imino-1~{H}-purin-9-yl)tetrahydrofuran-2-yl]methoxy-oxido-phosphoryl]oxy-oxido-phosphoryl] hydrogen phosphate
   44    46     1     0     0
SMALL
USER_CHARGES

@<TRIPOS>ATOM
      1 PG         -3.8386    6.7794    4.7787 P.3       1 ATP         1.5257
      2 O1G        -3.3385    8.1767    5.0700 O.co2     1 ATP        -0.8737
      3 O2G        -3.8090    5.7055    5.8434 O.co2     1 ATP        -0.8737
      4 O3G        -5.3581    6.8844    4.1905 O.3       1 ATP        -0.7971
      5 PB         -1.5242    5.8412    3.1954 P.3       1 ATP         1.6824
      6 O1B        -0.7051    7.1108    3.2653 O.co2     1 ATP        -0.8925
      7 O2B        -1.1766    4.6371    4.0420 O.co2     1 ATP        -0.8925
      8 O3B        -3.0941    6.2171    3.4395 O.3       1 ATP        -0.8047
      9 PA         -0.4665    4.8322    0.6228 P.3       1 ATP         1.5908
     10 O1A         0.6558    5.8467    0.5864 O.co2     1 ATP        -0.8932
     11 O2A        -1.1281    4.3644   -0.6552 O.co2     1 ATP        -0.8932
     12 O3A        -1.6297    5.3718    1.6355 O.3       1 ATP        -0.8088
     13 O5'         0.0178    3.5131    1.4595 O.3       1 ATP        -0.5646
     14 C5'        -0.8811    2.4285    1.6206 C.3       1 ATP         0.2204
     15 C4'        -0.1994    1.3333    2.4288 C.3       1 ATP         0.0965
     16 O4'        -1.1285    0.2356    2.5840 O.3       1 ATP        -0.3907
     17 C3'         1.0324    0.7610    1.7344 C.3       1 ATP         0.0763
     18 O3'         1.9175    0.2377    2.7247 O.3       1 ATP        -0.5884
     19 C2'         0.4468   -0.3802    0.9263 C.3       1 ATP         0.0784
     20 O2'         1.3993   -1.3703    0.5961 O.3       1 ATP        -0.6085
     21 C1'        -0.6159   -0.9100    1.8769 C.3       1 ATP         0.2186
     22 N9         -1.7127   -1.6108    1.2130 N.pl3     1 ATP        -0.1699
     23 C8         -2.5485   -1.0808    0.2609 C.ar      1 ATP         0.4438
     24 N7         -3.4476   -1.9486   -0.1593 N.2       1 ATP        -0.6280
     25 C5         -3.1762   -3.0816    0.5530 C.ar      1 ATP         0.2109
     26 C6         -3.8510   -4.3579    0.5006 C.ar      1 ATP         0.6180
     27 N6         -4.8468   -4.5293   -0.2961 N.2       1 ATP        -0.8319
     28 N1         -3.2499   -5.2342    1.3937 N.pl3     1 ATP        -0.8664
     29 C2         -2.1646   -4.9275    2.2116 C.ar      1 ATP         0.5952
     30 N3         -1.5382   -3.7840    2.2778 N.2       1 ATP        -0.5599
     31 C4         -2.1054   -2.9018    1.4120 C.ar      1 ATP         0.0076
     32 HOG3       -5.8245    6.0553    3.9512 H         1 ATP         0.4101
     33 H5'1       -1.7771    2.7849    2.1387 H         1 ATP         0.0364
     34 H5'2       -1.1654    2.0541    0.6320 H         1 ATP         0.0364
     35 H4'         0.0403    1.7078    3.4343 H         1 ATP         0.0945
     36 H3'         1.5907    1.4859    1.1353 H         1 ATP         0.0703
     37 HO3'        2.1521    0.9800    3.3017 H         1 ATP         0.4099
     38 H2'        -0.0017    0.0018    0.0005 H         1 ATP         0.0676
     39 HO2'        0.9369   -2.0558    0.0825 H         1 ATP         0.4291
     40 H1'        -0.1998   -1.6319    2.6178 H         1 ATP         0.0950
     41 H8         -2.4515   -0.0599   -0.0829 H         1 ATP         0.1135
     42 HN62       -5.1990   -5.4882   -0.2005 H         1 ATP         0.3588
     43 H2         -1.8555   -5.7783    2.8388 H         1 ATP         0.0302
     44 H44        -3.6312   -6.1750    1.4526 H         1 ATP         0.4215
@<TRIPOS>BOND
     1    1    2 2
     2    1    3 1
     3    1    4 1
     4    1    8 1
     5    4   32 1
     6    5    6 2
     7    5    7 1
     8    5    8 1
     9    5   12 1
    10    9   10 2
    11    9   11 1
    12    9   12 1
    13    9   13 1
    14   13   14 1
    15   14   15 1
    16   14   33 1
    17   14   34 1
    18   15   16 1
    19   15   17 1
    20   15   35 1
    21   16   21 1
    22   17   18 1
    23   17   19 1
    24   17   36 1
    25   18   37 1
    26   19   20 1
    27   19   21 1
    28   19   38 1
    29   20   39 1
    30   21   22 1
    31   21   40 1
    32   22   23 ar
    33   22   31 ar
    34   23   24 ar
    35   23   41 1
    36   24   25 ar
    37   25   26 ar
    38   25   31 ar
    39   26   27 2
    40   26   28 ar
    41   27   42 1
    42   28   29 ar
    43   28   44 1
    44   29   30 ar
    45   29   43 1
    46   30   31 ar
@<TRIPOS>SUBSTRUCTURE
     1 ATP         1 GROUP 0 A     ****
@<TRIPOS>MOLECULE
[[[3,4-dihydroxy-5-(6-imino-1~{H}-purin-9-yl)tetrahydrofuran-2-yl]methoxy-oxido-phosphoryl]oxy-oxido-phosphoryl] hydrogen phosphate
   44    46     1     0     0
SMALL
USER_CHARGES

@<TRIPOS>ATOM
      1 PG          0.6289    8.4713    0.4071 P.3       1 ATP         1.5257
      2 O1G         0.1238    9.6135    1.2601 O.co2     1 ATP        -0.8737
      3 O2G         0.7208    8.6057   -1.0966 O.co2     1 ATP        -0.8737
      4 O3G         2.0864    8.0044    0.9759 O.3       1 ATP        -0.7971
      5 PB         -1.7954    6.7817    0.5135 P.3       1 ATP         1.6824
      6 O1B        -2.6350    7.6895    1.3843 O.co2     1 ATP        -0.8925
      7 O2B        -2.0366    6.6827   -0.9764 O.co2     1 ATP        -0.8925
      8 O3B        -0.2193    7.1241    0.7669 O.3       1 ATP        -0.8047
      9 PA         -1.4709    4.7755    2.6641 P.3       1 ATP         1.5908
     10 O1A        -2.5003    5.3468    3.6150 O.co2     1 ATP        -0.8932
     11 O2A         0.0077    4.9865    2.9069 O.co2     1 ATP        -0.8932
     12 O3A        -1.8194    5.2782    1.1490 O.3       1 ATP        -0.8088
     13 O5'        -1.7336    3.1724    2.4750 O.3       1 ATP        -0.5646
     14 C5'        -0.8811    2.4285    1.6206 C.3       1 ATP         0.2204
     15 C4'        -0.1994    1.3333    2.4288 C.3       1 ATP         0.0965
     16 O4'        -1.1285    0.2356    2.5840 O.3       1 ATP        -0.3907
     17 C3'         1.0324    0.7610    1.7344 C.3       1 ATP         0.0763
     18 O3'         1.9175    0.2377    2.7247 O.3       1 ATP        -0.5884
     19 C2'         0.4468   -0.3802    0.9263 C.3       1 ATP         0.0784
     20 O2'         1.3993   -1.3703    0.5961 O.3       1 ATP        -0.6085
     21 C1'        -0.6159   -0.9100    1.8769 C.3       1 ATP         0.2186
     22 N9         -1.7127   -1.6108    1.2130 N.pl3     1 ATP        -0.1699
     23 C8         -2.8662   -1.0361    0.7388 C.ar      1 ATP         0.4438
     24 N7         -3.6774   -1.9166    0.1867 N.2       1 ATP        -0.6280
     25 C5         -3.0159   -3.1045    0.3122 C.ar      1 ATP         0.2109
     26 C6         -3.4377   -4.4169   -0.1199 C.ar      1 ATP         0.6180
     27 N6         -4.5720   -4.5691   -0.7080 N.2       1 ATP        -0.8319
     28 N1         -2.4600   -5.3463    0.2071 N.pl3     1 ATP        -0.8664
     29 C2         -1.2595   -5.0554    0.8515 C.ar      1 ATP         0.5952
     30 N3         -0.8555   -3.8803    1.2516 N.2       1 ATP        -0.5599
     31 C4         -1.7946   -2.9457    0.9448 C.ar      1 ATP         0.0076
     32 HOG3        2.5491    7.2663    0.5248 H         1 ATP         0.4101
     33 H5'1       -1.4800    1.9927    0.8146 H         1 ATP         0.0364
     34 H5'2       -0.1367    3.1040    1.1872 H         1 ATP         0.0364
     35 H4'         0.0403    1.7078    3.4343 H         1 ATP         0.0945
     36 H3'         1.5907    1.4859    1.1353 H         1 ATP         0.0703
     37 HO3'        2.6839   -0.1150    2.2479 H         1 ATP         0.4099
     38 H2'        -0.0017    0.0018    0.0005 H         1 ATP         0.0676
     39 HO2'        2.0953   -0.9375    0.0709 H         1 ATP         0.4291
     40 H1'        -0.1998   -1.6319    2.6178 H         1 ATP         0.0950
     41 H8         -3.0558    0.0252    0.8256 H         1 ATP         0.1135
     42 HN62       -4.7047   -5.5592   -0.9421 H         1 ATP         0.3588
     43 H2         -0.6372   -5.9505    1.0077 H         1 ATP         0.0302
     44 H44        -2.6338   -6.3155   -0.0469 H         1 ATP         0.4215
@<TRIPOS>BOND
     1    1    2 2
     2    1    3 1
     3    1    4 1
     4    1    8 1
     5    4   32 1
     6    5    6 2
     7    5    7 1
     8    5    8 1
     9    5   12 1
    10    9   10 2
    11    9   11 1
    12    9   12 1
    13    9   13 1
    14   13   14 1
    15   14   15 1
    16   14   33 1
    17   14   34 1
    18   15   16 1
    19   15   17 1
    20   15   35 1
    21   16   21 1
    22   17   18 1
    23   17   19 1
    24   17   36 1
    25   18   37 1
    26   19   20 1
    27   19   21 1
    28   19   38 1
    29   20   39 1
    30   21   22 1
    31   21   40 1
    32   22   23 ar
    33   22   31 ar
    34   23   24 ar
    35   23   41 1
    36   24   25 ar
    37   25   26 ar
    38   25   31 ar
    39   26   27 2
    40   26   28 ar
    41   27   42 1
    42   28   29 ar
    43   28   44 1
    44   29   30 ar
    45   29   43 1
    46   30   31 ar
@<TRIPOS>SUBSTRUCTURE
     1 ATP         1 GROUP 0 A     ****
@<TRIPOS>MOLECULE
[[[3,4-dihydroxy-5-(6-imino-1~{H}-purin-9-yl)tetrahydrofuran-2-yl]methoxy-oxido-phosphoryl]oxy-oxido-phosphoryl] hydrogen phosphate
   44    46     1     0     0
SMALL
USER_CHARGES

@<TRIPOS>ATOM
      1 PG          0.5314    8.4108    3.0435 P.3       1 ATP         1.5257
      2 O1G         2.0194    8.4157    3.3145 O.co2     1 ATP        -0.8737
      3 O2G        -0.4056    9.2964    3.8343 O.co2     1 ATP        -0.8737
      4 O3G         0.2930    8.6934    1.4531 O.3       1 ATP        -0.7971
      5 PB         -0.1155    5.8502    4.3731 P.3       1 ATP         1.6824
      6 O1B         1.2845    5.4994    4.8255 O.co2     1 ATP        -0.8925
      7 O2B        -1.1427    6.3834    5.3467 O.co2     1 ATP        -0.8925
      8 O3B        -0.0148    6.8741    3.1054 O.3       1 ATP        -0.8047
      9 PA         -2.1561    4.4278    2.7707 P.3       1 ATP         1.5908
     10 O1A        -2.0925    5.3170    1.5478 O.co2     1 ATP        -0.8932
     11 O2A        -3.2978    4.5484    3.7564 O.co2     1 ATP        -0.8932
     12 O3A        -0.7509    4.5646    3.5932 O.3       1 ATP        -0.8088
     13 O5'        -2.0401    2.8620    2.3128 O.3       1 ATP        -0.5646
     14 C5'        -0.8811    2.4285    1.6206 C.3       1 ATP         0.2204
     15 C4'        -0.1994    1.3333    2.4288 C.3       1 ATP         0.0965
     16 O4'        -1.1285    0.2356    2.5840 O.3       1 ATP        -0.3907
     17 C3'         1.0324    0.7610    1.7344 C.3       1 ATP         0.0763
     18 O3'         1.9175    0.2377    2.7247 O.3       1 ATP        -0.5884
     19 C2'         0.4468   -0.3802    0.9263 C.3       1 ATP         0.0784
     20 O2'         1.3993   -1.3703    0.5961 O.3       1 ATP        -0.6085
     21 C1'        -0.6159   -0.9100    1.8769 C.3       1 ATP         0.2186
     22 N9         -1.7127   -1.6108    1.2130 N.pl3     1 ATP        -0.1699
     23 C8         -2.8662   -1.0361    0.7388 C.ar      1 ATP         0.4438
     24 N7         -3.6774   -1.9166    0.1867 N.2       1 ATP        -0.6280
     25 C5         -3.0159   -3.1045    0.3122 C.ar      1 ATP         0.2109
     26 C6         -3.4377   -4.4169   -0.1199 C.ar      1 ATP         0.6180
     27 N6         -4.5720   -4.5691   -0.7080 N.2       1 ATP        -0.8319
     28 N1         -2.4600   -5.3463    0.2071 N.pl3     1 ATP        -0.8664
     29 C2         -1.2595   -5.0554    0.8515 C.ar      1 ATP         0.5952
     30 N3         -0.8555   -3.8803    1.2516 N.2       1 ATP        -0.5599
     31 C4         -1.7946   -2.9457    0.9448 C.ar      1 ATP         0.0076
     32 HOG3       -0.6281    8.7213    1.1168 H         1 ATP         0.4101
     33 H5'1       -1.1767    2.0502    0.6368 H         1 ATP         0.0364
     34 H5'2       -0.2080    3.2814    1.4876 H         1 ATP         0.0364
     35 H4'         0.0403    1.7078    3.4343 H         1 ATP         0.0945
     36 H3'         1.5907    1.4859    1.1353 H         1 ATP         0.0703
     37 HO3'        2.1521    0.9800    3.3017 H         1 ATP         0.4099
     38 H2'        -0.0017    0.0018    0.0005 H         1 ATP         0.0676
     39 HO2'        0.9369   -2.0558    0.0825 H         1 ATP         0.4291
     40 H1'        -0.1998   -1.6319    2.6178 H         1 ATP         0.0950
     41 H8         -3.0558    0.0252    0.8256 H         1 ATP         0.1135
     42 HN62       -4.7047   -5.5592   -0.9421 H         1 ATP         0.3588
     43 H2         -0.6372   -5.9505    1.0077 H         1 ATP         0.0302
     44 H44        -2.6338   -6.3155   -0.0469 H         1 ATP         0.4215
@<TRIPOS>BOND
     1    1    2 2
     2    1    3 1
     3    1    4 1
     4    1    8 1
     5    4   32 1
     6    5    6 2
     7    5    7 1
     8    5    8 1
     9    5   12 1
    10    9   10 2
    11    9   11 1
    12    9   12 1
    13    9   13 1
    14   13   14 1
    15   14   15 1
    16   14   33 1
    17   14   34 1
    18   15   16 1
    19   15   17 1
    20   15   35 1
    21   16   21 1
    22   17   18 1
    23   17   19 1
    24   17   36 1
    25   18   37 1
    26   19   20 1
    27   19   21 1
    28   19   38 1
    29   20   39 1
    30   21   22 1
    31   21   40 1
    32   22   23 ar
    33   22   31 ar
    34   23   24 ar
    35   23   41 1
    36   24   25 ar
    37   25   26 ar
    38   25   31 ar
    39   26   27 2
    40   26   28 ar
    41   27   42 1
    42   28   29 ar
    43   28   44 1
    44   29   30 ar
    45   29   43 1
    46   30   31 ar
@<TRIPOS>SUBSTRUCTURE
     1 ATP         1 GROUP 0 A     ****
@<TRIPOS>MOLECULE
[[[3,4-dihydroxy-5-(6-imino-1~{H}-purin-9-yl)tetrahydrofuran-2-yl]methoxy-oxido-phosphoryl]oxy-oxido-phosphoryl] hydrogen phosphate
   44    46     1     0     0
SMALL
USER_CHARGES

@<TRIPOS>ATOM
      1 PG         -3.2548    5.6678   -3.2927 P.3       1 ATP         1.5257
      2 O1G        -4.6763    6.1067   -3.0201 O.co2     1 ATP        -0.8737
      3 O2G        -2.9578    4.5711   -4.2910 O.co2     1 ATP        -0.8737
      4 O3G        -2.3730    6.9833   -3.6901 O.3       1 ATP        -0.7971
      5 PB         -2.3895    6.1938   -0.5145 P.3       1 ATP         1.6824
      6 O1B        -1.5014    7.3837   -0.8027 O.co2     1 ATP        -0.8925
      7 O2B        -3.7630    6.3705    0.0935 O.co2     1 ATP        -0.8925
      8 O3B        -2.5303    5.3040   -1.8762 O.3       1 ATP        -0.8047
      9 PA         -0.0889    4.4444    0.1193 P.3       1 ATP         1.5908
     10 O1A         0.9661    5.5282    0.1728 O.co2     1 ATP        -0.8932
     11 O2A        -0.2001    3.5318   -1.0825 O.co2     1 ATP        -0.8932
     12 O3A        -1.5516    5.1216    0.3871 O.3       1 ATP        -0.8088
     13 O5'         0.0178    3.5131    1.4595 O.3       1 ATP        -0.5646
     14 C5'        -0.8811    2.4285    1.6206 C.3       1 ATP         0.2204
     15 C4'        -0.1994    1.3333    2.4288 C.3       1 ATP         0.0965
     16 O4'        -1.1285    0.2356    2.5840 O.3       1 ATP        -0.3907
     17 C3'         1.0324    0.7610    1.7344 C.3       1 ATP         0.0763
     18 O3'         1.9175    0.2377    2.7247 O.3       1 ATP        -0.5884
     19 C2'         0.4468   -0.3802    0.9263 C.3       1 ATP         0.0784
     20 O2'         1.3993   -1.3703    0.5961 O.3       1 ATP        -0.6085
     21 C1'        -0.6159   -0.9100    1.8769 C.3       1 ATP         0.2186
     22 N9         -1.7127   -1.6108    1.2130 N.pl3     1 ATP        -0.1699
     23 C8         -2.8662   -1.0361    0.7388 C.ar      1 ATP         0.4438
     24 N7         -3.6774   -1.9166    0.1867 N.2       1 ATP        -0.6280
     25 C5         -3.0159   -3.1045    0.3122 C.ar      1 ATP         0.2109
     26 C6         -3.4377   -4.4169   -0.1199 C.ar      1 ATP         0.6180
     27 N6         -4.5720   -4.5691   -0.7080 N.2       1 ATP        -0.8319
     28 N1         -2.4600   -5.3463    0.2071 N.pl3     1 ATP        -0.8664
     29 C2         -1.2595   -5.0554    0.8515 C.ar      1 ATP         0.5952
     30 N3         -0.8555   -3.8803    1.2516 N.2       1 ATP        -0.5599
     31 C4         -1.7946   -2.9457    0.9448 C.ar      1 ATP         0.0076
     32 HOG3       -1.4218    6.8626   -3.8973 H         1 ATP         0.4101
     33 H5'1       -1.7771    2.7849    2.1387 H         1 ATP         0.0364
     34 H5'2       -1.1654    2.0541    0.6320 H         1 ATP         0.0364
     35 H4'         0.0403    1.7078    3.4343 H         1 ATP         0.0945
     36 H3'         1.5907    1.4859    1.1353 H         1 ATP         0.0703
     37 HO3'        2.6839   -0.1150    2.2479 H         1 ATP         0.4099
     38 H2'        -0.0017    0.0018    0.0005 H         1 ATP         0.0676
     39 HO2'        2.0953   -0.9375    0.0709 H         1 ATP         0.4291
     40 H1'        -0.1998   -1.6319    2.6178 H         1 ATP         0.0950
     41 H8         -3.0558    0.0252    0.8256 H         1 ATP         0.1135
     42 HN62       -4.7047   -5.5592   -0.9421 H         1 ATP         0.3588
     43 H2         -0.6372   -5.9505    1.0077 H         1 ATP         0.0302
     44 H44        -2.6338   -6.3155   -0.0469 H         1 ATP         0.4215
@<TRIPOS>BOND
     1    1    2 2
     2    1    3 1
     3    1    4 1
     4    1    8 1
     5    4   32 1
     6    5    6 2
     7    5    7 1
     8    5    8 1
     9    5   12 1
    10    9   10 2
    11    9   11 1
    12    9   12 1
    13    9   13 1
    14   13   14 1
    15   14   15 1
    16   14   33 1
    17   14   34 1
    18   15   16 1
    19   15   17 1
    20   15   35 1
    21   16   21 1
    22   17   18 1
    23   17   19 1
    24   17   36 1
    25   18   37 1
    26   19   20 1
    27   19   21 1
    28   19   38 1
    29   20   39 1
    30   21   22 1
    31   21   40 1
    32   22   23 ar
    33   22   31 ar
    34   23   24 ar
    35   23   41 1
    36   24   25 ar
    37   25   26 ar
    38   25   31 ar
    39   26   27 2
    40   26   28 ar
    41   27   42 1
    42   28   29 ar
    43   28   44 1
    44   29   30 ar
    45   29   43 1
    46   30   31 ar
@<TRIPOS>SUBSTRUCTURE
     1 ATP         1 GROUP 0 A     ****
@<TRIPOS>MOLECULE
[[[3,4-dihydroxy-5-(6-imino-1~{H}-purin-9-yl)tetrahydrofuran-2-yl]methoxy-oxido-phosphoryl]oxy-oxido-phosphoryl] hydrogen phosphate
   44    46     1     0     0
SMALL
USER_CHARGES

@<TRIPOS>ATOM
      1 PG          6.5091    5.6430   -2.1477 P.3       1 ATP         1.5257
      2 O1G         7.2835    5.0288   -1.0029 O.co2     1 ATP        -0.8737
      3 O2G         5.1919    6.3462   -1.9062 O.co2     1 ATP        -0.8737
      4 O3G         7.4983    6.6589   -2.9572 O.3       1 ATP        -0.7971
      5 PB          5.4264    3.1416   -3.2941 P.3       1 ATP         1.6824
      6 O1B         4.0120    3.4726   -2.8730 O.co2     1 ATP        -0.8925
      7 O2B         5.7053    2.3720   -4.5659 O.co2     1 ATP        -0.8925
      8 O3B         6.3028    4.5190   -3.3129 O.3       1 ATP        -0.8047
      9 PA          5.8979    0.9309   -1.3848 P.3       1 ATP         1.5908
     10 O1A         6.7868    0.7713   -0.1705 O.co2     1 ATP        -0.8932
     11 O2A         5.9018   -0.1050   -2.4878 O.co2     1 ATP        -0.8932
     12 O3A         6.1804    2.3945   -2.0539 O.3       1 ATP        -0.8088
     13 O5'         4.3516    1.1575   -0.9026 O.3       1 ATP        -0.5646
     14 C5'         4.0922    1.9801    0.2227 C.3       1 ATP         0.2204
     15 C4'         2.5944    2.0310    0.4653 C.3       1 ATP         0.0965
     16 O4'         1.9327    2.5740   -0.6889 O.3       1 ATP        -0.3907
     17 C3'         1.9685    0.6634    0.6767 C.3       1 ATP         0.0763
     18 O3'         2.1425    0.1975    1.9977 O.3       1 ATP        -0.5884
     19 C2'         0.5176    0.9128    0.3099 C.3       1 ATP         0.0784
     20 O2'        -0.2103    1.4454    1.4152 O.3       1 ATP        -0.6085
     21 C1'         0.6219    1.9765   -0.7844 C.3       1 ATP         0.2186
     22 N9          0.4237    1.4496   -2.1357 N.pl3     1 ATP        -0.1699
     23 C8          1.4069    0.9710   -2.9662 C.ar      1 ATP         0.4438
     24 N7          0.9316    0.5623   -4.1260 N.2       1 ATP        -0.6280
     25 C5         -0.4120    0.7884   -4.0344 C.ar      1 ATP         0.2109
     26 C6         -1.4353    0.5283   -5.0204 C.ar      1 ATP         0.6180
     27 N6         -1.1199    0.0176   -6.1586 N.2       1 ATP        -0.8319
     28 N1         -2.6704    0.9095   -4.5147 N.pl3     1 ATP        -0.8664
     29 C2         -2.8863    1.4571   -3.2520 C.ar      1 ATP         0.5952
     30 N3         -1.9805    1.7017   -2.3442 N.2       1 ATP        -0.5599
     31 C4         -0.7561    1.3381   -2.8112 C.ar      1 ATP         0.0076
     32 HOG3        7.1402    7.1390   -3.7340 H         1 ATP         0.4101
     33 H5'1        4.6069    1.5618    1.0936 H         1 ATP         0.0364
     34 H5'2        4.4824    2.9837    0.0254 H         1 ATP         0.0364
     35 H4'         2.3752    2.7029    1.3156 H         1 ATP         0.0945
     36 H3'         2.4336   -0.1217   -0.0015 H         1 ATP         0.0703
     37 HO3'        1.7160   -0.6716    2.0397 H         1 ATP         0.4099
     38 H2'         0.0316    0.0155   -0.0339 H         1 ATP         0.0676
     39 HO2'       -0.1608    0.7921    2.1351 H         1 ATP         0.4291
     40 H1'        -0.1474    2.7798   -0.6651 H         1 ATP         0.0950
     41 H8          2.4466    0.9468   -2.6694 H         1 ATP         0.1135
     42 HN62       -1.9661   -0.0965   -6.7275 H         1 ATP         0.3588
     43 H2         -3.9481    1.6825   -3.0660 H         1 ATP         0.0302
     44 H44        -3.4814    0.7753   -5.1133 H         1 ATP         0.4215
@<TRIPOS>BOND
     1    1    2 2
     2    1    3 1
     3    1    4 1
     4    1    8 1
     5    4   32 1
     6    5    6 2
     7    5    7 1
     8    5    8 1
     9    5   12 1
    10    9   10 2
    11    9   11 1
    12    9   12 1
    13    9   13 1
    14   13   14 1
    15   14   15 1
    16   14   33 1
    17   14   34 1
    18   15   16 1
    19   15   17 1
    20   15   35 1
    21   16   21 1
    22   17   18 1
    23   17   19 1
    24   17   36 1
    25   18   37 1
    26   19   20 1
    27   19   21 1
    28   19   38 1
    29   20   39 1
    30   21   22 1
    31   21   40 1
    32   22   23 ar
    33   22   31 ar
    34   23   24 ar
    35   23   41 1
    36   24   25 ar
    37   25   26 ar
    38   25   31 ar
    39   26   27 2
    40   26   28 ar
    41   27   42 1
    42   28   29 ar
    43   28   44 1
    44   29   30 ar
    45   29   43 1
    46   30   31 ar
@<TRIPOS>SUBSTRUCTURE
     1 ATP         1 GROUP 0 A     ****
@<TRIPOS>MOLECULE
[[[3,4-dihydroxy-5-(6-imino-1~{H}-purin-9-yl)tetrahydrofuran-2-yl]methoxy-oxido-phosphoryl]oxy-oxido-phosphoryl] hydrogen phosphate
   44    46     1     0     0
SMALL
USER_CHARGES

@<TRIPOS>ATOM
      1 PG          3.9644    5.8487   -2.8812 P.3       1 ATP         1.5257
      2 O1G         4.9797    6.8788   -2.4389 O.co2     1 ATP        -0.8737
      3 O2G         3.1883    5.0373   -1.8678 O.co2     1 ATP        -0.8737
      4 O3G         2.9028    6.5677   -3.8922 O.3       1 ATP        -0.7971
      5 PB          5.8619    3.7408   -3.7175 P.3       1 ATP         1.6824
      6 O1B         6.0312    2.9350   -4.9862 O.co2     1 ATP        -0.8925
      7 O2B         7.0376    4.4368   -3.0687 O.co2     1 ATP        -0.8925
      8 O3B         4.6687    4.8316   -3.9456 O.3       1 ATP        -0.8047
      9 PA          5.6603    1.4687   -1.8328 P.3       1 ATP         1.5908
     10 O1A         6.8284    1.8494   -0.9491 O.co2     1 ATP        -0.8932
     11 O2A         5.7909    0.3574   -2.8515 O.co2     1 ATP        -0.8932
     12 O3A         5.1235    2.8079   -2.5998 O.3       1 ATP        -0.8088
     13 O5'         4.3516    1.1575   -0.9026 O.3       1 ATP        -0.5646
     14 C5'         4.0922    1.9801    0.2227 C.3       1 ATP         0.2204
     15 C4'         2.5944    2.0310    0.4653 C.3       1 ATP         0.0965
     16 O4'         1.9327    2.5740   -0.6889 O.3       1 ATP        -0.3907
     17 C3'         1.9685    0.6634    0.6767 C.3       1 ATP         0.0763
     18 O3'         2.1425    0.1975    1.9977 O.3       1 ATP        -0.5884
     19 C2'         0.5176    0.9128    0.3099 C.3       1 ATP         0.0784
     20 O2'        -0.2103    1.4454    1.4152 O.3       1 ATP        -0.6085
     21 C1'         0.6219    1.9765   -0.7844 C.3       1 ATP         0.2186
     22 N9          0.4237    1.4496   -2.1357 N.pl3     1 ATP        -0.1699
     23 C8          1.4069    0.9710   -2.9662 C.ar      1 ATP         0.4438
     24 N7          0.9316    0.5623   -4.1260 N.2       1 ATP        -0.6280
     25 C5         -0.4120    0.7884   -4.0344 C.ar      1 ATP         0.2109
     26 C6         -1.4353    0.5283   -5.0204 C.ar      1 ATP         0.6180
     27 N6         -1.1199    0.0176   -6.1586 N.2       1 ATP        -0.8319
     28 N1         -2.6704    0.9095   -4.5147 N.pl3     1 ATP        -0.8664
     29 C2         -2.8863    1.4571   -3.2520 C.ar      1 ATP         0.5952
     30 N3         -1.9805    1.7017   -2.3442 N.2       1 ATP        -0.5599
     31 C4         -0.7561    1.3381   -2.8112 C.ar      1 ATP         0.0076
     32 HOG3        2.1764    6.0263   -4.2684 H         1 ATP         0.4101
     33 H5'1        4.6069    1.5618    1.0936 H         1 ATP         0.0364
     34 H5'2        4.4824    2.9837    0.0254 H         1 ATP         0.0364
     35 H4'         2.3752    2.7029    1.3156 H         1 ATP         0.0945
     36 H3'         2.4336   -0.1217   -0.0015 H         1 ATP         0.0703
     37 HO3'        1.7160   -0.6716    2.0397 H         1 ATP         0.4099
     38 H2'         0.0316    0.0155   -0.0339 H         1 ATP         0.0676
     39 HO2'       -0.1608    0.7921    2.1351 H         1 ATP         0.4291
     40 H1'        -0.1474    2.7798   -0.6651 H         1 ATP         0.0950
     41 H8          2.4466    0.9468   -2.6694 H         1 ATP         0.1135
     42 HN62       -1.9661   -0.0965   -6.7275 H         1 ATP         0.3588
     43 H2         -3.9481    1.6825   -3.0660 H         1 ATP         0.0302
     44 H44        -3.4814    0.7753   -5.1133 H         1 ATP         0.4215
@<TRIPOS>BOND
     1    1    2 2
     2    1    3 1
     3    1    4 1
     4    1    8 1
     5    4   32 1
     6    5    6 2
     7    5    7 1
     8    5    8 1
     9    5   12 1
    10    9   10 2
    11    9   11 1
    12    9   12 1
    13    9   13 1
    14   13   14 1
    15   14   15 1
    16   14   33 1
    17   14   34 1
    18   15   16 1
    19   15   17 1
    20   15   35 1
    21   16   21 1
    22   17   18 1
    23   17   19 1
    24   17   36 1
    25   18   37 1
    26   19   20 1
    27   19   21 1
    28   19   38 1
    29   20   39 1
    30   21   22 1
    31   21   40 1
    32   22   23 ar
    33   22   31 ar
    34   23   24 ar
    35   23   41 1
    36   24   25 ar
    37   25   26 ar
    38   25   31 ar
    39   26   27 2
    40   26   28 ar
    41   27   42 1
    42   28   29 ar
    43   28   44 1
    44   29   30 ar
    45   29   43 1
    46   30   31 ar
@<TRIPOS>SUBSTRUCTURE
     1 ATP         1 GROUP 0 A     ****
@<TRIPOS>MOLECULE
[[[3,4-dihydroxy-5-(6-imino-1~{H}-purin-9-yl)tetrahydrofuran-2-yl]methoxy-oxido-phosphoryl]oxy-oxido-phosphoryl] hydrogen phosphate
   44    46     1     0     0
SMALL
USER_CHARGES

@<TRIPOS>ATOM
      1 PG         -4.6378    7.3945    3.5330 P.3       1 ATP         1.5257
      2 O1G        -4.9589    6.8882    4.9216 O.co2     1 ATP        -0.8737
      3 O2G        -5.7261    7.5637    2.4964 O.co2     1 ATP        -0.8737
      4 O3G        -3.8282    8.8058    3.6698 O.3       1 ATP        -0.7971
      5 PB         -2.6061    6.6739    1.5090 P.3       1 ATP         1.6824
      6 O1B        -3.5484    6.4622    0.3451 O.co2     1 ATP        -0.8925
      7 O2B        -1.7629    7.9249    1.6168 O.co2     1 ATP        -0.8925
      8 O3B        -3.4407    6.4839    2.8993 O.3       1 ATP        -0.8047
      9 PA         -0.4665    4.8322    0.6228 P.3       1 ATP         1.5908
     10 O1A         0.6558    5.8467    0.5864 O.co2     1 ATP        -0.8932
     11 O2A        -1.1281    4.3644   -0.6552 O.co2     1 ATP        -0.8932
     12 O3A        -1.6297    5.3718    1.6355 O.3       1 ATP        -0.8088
     13 O5'         0.0178    3.5131    1.4595 O.3       1 ATP        -0.5646
     14 C5'        -0.8811    2.4285    1.6206 C.3       1 ATP         0.2204
     15 C4'        -0.1994    1.3333    2.4288 C.3       1 ATP         0.0965
     16 O4'        -1.1285    0.2356    2.5840 O.3       1 ATP        -0.3907
     17 C3'         1.0324    0.7610    1.7344 C.3       1 ATP         0.0763
     18 O3'         1.9175    0.2377    2.7247 O.3       1 ATP        -0.5884
     19 C2'         0.4468   -0.3802    0.9263 C.3       1 ATP         0.0784
     20 O2'         1.3993   -1.3703    0.5961 O.3       1 ATP        -0.6085
     21 C1'        -0.6159   -0.9100    1.8769 C.3       1 ATP         0.2186
     22 N9         -1.7127   -1.6108    1.2130 N.pl3     1 ATP        -0.1699
     23 C8         -1.7690   -2.9583    0.9549 C.ar      1 ATP         0.4438
     24 N7         -2.8827   -3.3076    0.3418 N.2       1 ATP        -0.6280
     25 C5         -3.5683   -2.1351    0.2017 C.ar      1 ATP         0.2109
     26 C6         -4.8617   -1.9185   -0.4044 C.ar      1 ATP         0.6180
     27 N6         -5.5166   -2.9094   -0.8993 N.2       1 ATP        -0.8319
     28 N1         -5.1837   -0.5701   -0.3344 N.pl3     1 ATP        -0.8664
     29 C2         -4.3821    0.4180    0.2330 C.ar      1 ATP         0.5952
     30 N3         -3.2117    0.2488    0.7860 N.2       1 ATP        -0.5599
     31 C4         -2.8672   -1.0657    0.7327 C.ar      1 ATP         0.0076
     32 HOG3       -3.5468    9.2640    2.8494 H         1 ATP         0.4101
     33 H5'1       -1.7771    2.7849    2.1387 H         1 ATP         0.0364
     34 H5'2       -1.1654    2.0541    0.6320 H         1 ATP         0.0364
     35 H4'         0.0403    1.7078    3.4343 H         1 ATP         0.0945
     36 H3'         1.5907    1.4859    1.1353 H         1 ATP         0.0703
     37 HO3'        2.6839   -0.1150    2.2479 H         1 ATP         0.4099
     38 H2'        -0.0017    0.0018    0.0005 H         1 ATP         0.0676
     39 HO2'        2.0953   -0.9375    0.0709 H         1 ATP         0.4291
     40 H1'        -0.1998   -1.6319    2.6178 H         1 ATP         0.0950
     41 H8         -0.9697   -3.6300    1.2371 H         1 ATP         0.1135
     42 HN62       -6.4060   -2.5723   -1.2840 H         1 ATP         0.3588
     43 H2         -4.8409    1.4176    0.1757 H         1 ATP         0.0302
     44 H44        -6.0768   -0.2826   -0.7263 H         1 ATP         0.4215
@<TRIPOS>BOND
     1    1    2 2
     2    1    3 1
     3    1    4 1
     4    1    8 1
     5    4   32 1
     6    5    6 2
     7    5    7 1
     8    5    8 1
     9    5   12 1
    10    9   10 2
    11    9   11 1
    12    9   12 1
    13    9   13 1
    14   13   14 1
    15   14   15 1
    16   14   33 1
    17   14   34 1
    18   15   16 1
    19   15   17 1
    20   15   35 1
    21   16   21 1
    22   17   18 1
    23   17   19 1
    24   17   36 1
    25   18   37 1
    26   19   20 1
    27   19   21 1
    28   19   38 1
    29   20   39 1
    30   21   22 1
    31   21   40 1
    32   22   23 ar
    33   22   31 ar
    34   23   24 ar
    35   23   41 1
    36   24   25 ar
    37   25   26 ar
    38   25   31 ar
    39   26   27 2
    40   26   28 ar
    41   27   42 1
    42   28   29 ar
    43   28   44 1
    44   29   30 ar
    45   29   43 1
    46   30   31 ar
@<TRIPOS>SUBSTRUCTURE
     1 ATP         1 GROUP 0 A     ****
@<TRIPOS>MOLECULE
[[[3,4-dihydroxy-5-(6-imino-1~{H}-purin-9-yl)tetrahydrofuran-2-yl]methoxy-oxido-phosphoryl]oxy-oxido-phosphoryl] hydrogen phosphate
   44    46     1     0     0
SMALL
USER_CHARGES

@<TRIPOS>ATOM
      1 PG         -0.8006    9.1491    3.8051 P.3       1 ATP         1.5257
      2 O1G         0.4717    9.7950    3.3035 O.co2     1 ATP        -0.8737
      3 O2G        -1.2004    9.2467    5.2605 O.co2     1 ATP        -0.8737
      4 O3G        -2.0455    9.6755    2.8890 O.3       1 ATP        -0.7971
      5 PB         -1.9924    6.4606    3.4965 P.3       1 ATP         1.6824
      6 O1B        -2.2145    6.1697    4.9640 O.co2     1 ATP        -0.8925
      7 O2B        -3.1404    6.8524    2.5931 O.co2     1 ATP        -0.8925
      8 O3B        -0.8116    7.5796    3.3576 O.3       1 ATP        -0.8047
      9 PA         -0.5790    5.0299    1.3261 P.3       1 ATP         1.5908
     10 O1A         0.5634    6.0092    1.1642 O.co2     1 ATP        -0.8932
     11 O2A        -1.7210    5.0027    0.3337 O.co2     1 ATP        -0.8932
     12 O3A        -1.2057    5.1972    2.8258 O.3       1 ATP        -0.8088
     13 O5'         0.0178    3.5131    1.4595 O.3       1 ATP        -0.5646
     14 C5'        -0.8811    2.4285    1.6206 C.3       1 ATP         0.2204
     15 C4'        -0.1994    1.3333    2.4288 C.3       1 ATP         0.0965
     16 O4'        -1.1285    0.2356    2.5840 O.3       1 ATP        -0.3907
     17 C3'         1.0324    0.7610    1.7344 C.3       1 ATP         0.0763
     18 O3'         1.9175    0.2377    2.7247 O.3       1 ATP        -0.5884
     19 C2'         0.4468   -0.3802    0.9263 C.3       1 ATP         0.0784
     20 O2'         1.3993   -1.3703    0.5961 O.3       1 ATP        -0.6085
     21 C1'        -0.6159   -0.9100    1.8769 C.3       1 ATP         0.2186
     22 N9         -1.7127   -1.6108    1.2130 N.pl3     1 ATP        -0.1699
     23 C8         -2.8662   -1.0361    0.7388 C.ar      1 ATP         0.4438
     24 N7         -3.6774   -1.9166    0.1867 N.2       1 ATP        -0.6280
     25 C5         -3.0159   -3.1045    0.3122 C.ar      1 ATP         0.2109
     26 C6         -3.4377   -4.4169   -0.1199 C.ar      1 ATP         0.6180
     27 N6         -4.5720   -4.5691   -0.7080 N.2       1 ATP        -0.8319
     28 N1         -2.4600   -5.3463    0.2071 N.pl3     1 ATP        -0.8664
     29 C2         -1.2595   -5.0554    0.8515 C.ar      1 ATP         0.5952
     30 N3         -0.8555   -3.8803    1.2516 N.2       1 ATP        -0.5599
     31 C4         -1.7946   -2.9457    0.9448 C.ar      1 ATP         0.0076
     32 HOG3       -2.9465    9.3442    3.0909 H         1 ATP         0.4101
     33 H5'1       -1.7771    2.7849    2.1387 H         1 ATP         0.0364
     34 H5'2       -1.1654    2.0541    0.6320 H         1 ATP         0.0364
     35 H4'         0.0403    1.7078    3.4343 H         1 ATP         0.0945
     36 H3'         1.5907    1.4859    1.1353 H         1 ATP         0.0703
     37 HO3'        2.6839   -0.1150    2.2479 H         1 ATP         0.4099
     38 H2'        -0.0017    0.0018    0.0005 H         1 ATP         0.0676
     39 HO2'        0.9369   -2.0558    0.0825 H         1 ATP         0.4291
     40 H1'        -0.1998   -1.6319    2.6178 H         1 ATP         0.0950
     41 H8         -3.0558    0.0252    0.8256 H         1 ATP         0.1135
     42 HN62       -4.7047   -5.5592   -0.9421 H         1 ATP         0.3588
     43 H2         -0.6372   -5.9505    1.0077 H         1 ATP         0.0302
     44 H44        -2.6338   -6.3155   -0.0469 H         1 ATP         0.4215
@<TRIPOS>BOND
     1    1    2 2
     2    1    3 1
     3    1    4 1
     4    1    8 1
     5    4   32 1
     6    5    6 2
     7    5    7 1
     8    5    8 1
     9    5   12 1
    10    9   10 2
    11    9   11 1
    12    9   12 1
    13    9   13 1
    14   13   14 1
    15   14   15 1
    16   14   33 1
    17   14   34 1
    18   15   16 1
    19   15   17 1
    20   15   35 1
    21   16   21 1
    22   17   18 1
    23   17   19 1
    24   17   36 1
    25   18   37 1
    26   19   20 1
    27   19   21 1
    28   19   38 1
    29   20   39 1
    30   21   22 1
    31   21   40 1
    32   22   23 ar
    33   22   31 ar
    34   23   24 ar
    35   23   41 1
    36   24   25 ar
    37   25   26 ar
    38   25   31 ar
    39   26   27 2
    40   26   28 ar
    41   27   42 1
    42   28   29 ar
    43   28   44 1
    44   29   30 ar
    45   29   43 1
    46   30   31 ar
@<TRIPOS>SUBSTRUCTURE
     1 ATP         1 GROUP 0 A     ****
@<TRIPOS>MOLECULE
[[[3,4-dihydroxy-5-(6-imino-1~{H}-purin-9-yl)tetrahydrofuran-2-yl]methoxy-oxido-phosphoryl]oxy-oxido-phosphoryl] hydrogen phosphate
   44    46     1     0     0
SMALL
USER_CHARGES

@<TRIPOS>ATOM
      1 PG          0.6476    7.3062   -3.3522 P.3       1 ATP         1.5257
      2 O1G         1.8790    8.0666   -2.9132 O.co2     1 ATP        -0.8737
      3 O2G        -0.6417    8.0309   -3.6687 O.co2     1 ATP        -0.8737
      4 O3G         1.0438    6.3709   -4.6305 O.3       1 ATP        -0.7971
      5 PB         -0.7639    4.9217   -2.3198 P.3       1 ATP         1.6824
      6 O1B        -2.1472    5.5274   -2.2367 O.co2     1 ATP        -0.8925
      7 O2B        -0.3913    3.9697   -3.4344 O.co2     1 ATP        -0.8925
      8 O3B         0.3383    6.1251   -2.2690 O.3       1 ATP        -0.8047
      9 PA         -0.4665    4.8322    0.6228 P.3       1 ATP         1.5908
     10 O1A        -1.9050    5.1497    0.9698 O.co2     1 ATP        -0.8932
     11 O2A         0.6096    5.8892    0.7429 O.co2     1 ATP        -0.8932
     12 O3A        -0.4148    4.2162   -0.8897 O.3       1 ATP        -0.8088
     13 O5'         0.0178    3.5131    1.4595 O.3       1 ATP        -0.5646
     14 C5'        -0.8811    2.4285    1.6206 C.3       1 ATP         0.2204
     15 C4'        -0.1994    1.3333    2.4288 C.3       1 ATP         0.0965
     16 O4'        -1.1285    0.2356    2.5840 O.3       1 ATP        -0.3907
     17 C3'         1.0324    0.7610    1.7344 C.3       1 ATP         0.0763
     18 O3'         1.9175    0.2377    2.7247 O.3       1 ATP        -0.5884
     19 C2'         0.4468   -0.3802    0.9263 C.3       1 ATP         0.0784
     20 O2'         1.3993   -1.3703    0.5961 O.3       1 ATP        -0.6085
     21 C1'        -0.6159   -0.9100    1.8769 C.3       1 ATP         0.2186
     22 N9         -1.7127   -1.6108    1.2130 N.pl3     1 ATP        -0.1699
     23 C8         -1.7690   -2.9583    0.9549 C.ar      1 ATP         0.4438
     24 N7         -2.8827   -3.3076    0.3418 N.2       1 ATP        -0.6280
     25 C5         -3.5683   -2.1351    0.2017 C.ar      1 ATP         0.2109
     26 C6         -4.8617   -1.9185   -0.4044 C.ar      1 ATP         0.6180
     27 N6         -5.5166   -2.9094   -0.8993 N.2       1 ATP        -0.8319
     28 N1         -5.1837   -0.5701   -0.3344 N.pl3     1 ATP        -0.8664
     29 C2         -4.3821    0.4180    0.2330 C.ar      1 ATP         0.5952
     30 N3         -3.2117    0.2488    0.7860 N.2       1 ATP        -0.5599
     31 C4         -2.8672   -1.0657    0.7327 C.ar      1 ATP         0.0076
     32 HOG3        0.3462    5.8115   -5.0339 H         1 ATP         0.4101
     33 H5'1       -1.7771    2.7849    2.1387 H         1 ATP         0.0364
     34 H5'2       -1.1654    2.0541    0.6320 H         1 ATP         0.0364
     35 H4'         0.0403    1.7078    3.4343 H         1 ATP         0.0945
     36 H3'         1.5907    1.4859    1.1353 H         1 ATP         0.0703
     37 HO3'        2.6839   -0.1150    2.2479 H         1 ATP         0.4099
     38 H2'        -0.0017    0.0018    0.0005 H         1 ATP         0.0676
     39 HO2'        2.0953   -0.9375    0.0709 H         1 ATP         0.4291
     40 H1'        -0.1998   -1.6319    2.6178 H         1 ATP         0.0950
     41 H8         -0.9697   -3.6300    1.2371 H         1 ATP         0.1135
     42 HN62       -6.4060   -2.5723   -1.2840 H         1 ATP         0.3588
     43 H2         -4.8409    1.4176    0.1757 H         1 ATP         0.0302
     44 H44        -6.0768   -0.2826   -0.7263 H         1 ATP         0.4215
@<TRIPOS>BOND
     1    1    2 2
     2    1    3 1
     3    1    4 1
     4    1    8 1
     5    4   32 1
     6    5    6 2
     7    5    7 1
     8    5    8 1
     9    5   12 1
    10    9   10 2
    11    9   11 1
    12    9   12 1
    13    9   13 1
    14   13   14 1
    15   14   15 1
    16   14   33 1
    17   14   34 1
    18   15   16 1
    19   15   17 1
    20   15   35 1
    21   16   21 1
    22   17   18 1
    23   17   19 1
    24   17   36 1
    25   18   37 1
    26   19   20 1
    27   19   21 1
    28   19   38 1
    29   20   39 1
    30   21   22 1
    31   21   40 1
    32   22   23 ar
    33   22   31 ar
    34   23   24 ar
    35   23   41 1
    36   24   25 ar
    37   25   26 ar
    38   25   31 ar
    39   26   27 2
    40   26   28 ar
    41   27   42 1
    42   28   29 ar
    43   28   44 1
    44   29   30 ar
    45   29   43 1
    46   30   31 ar
@<TRIPOS>SUBSTRUCTURE
     1 ATP         1 GROUP 0 A     ****
@<TRIPOS>MOLECULE
[[[3,4-dihydroxy-5-(6-imino-1~{H}-purin-9-yl)tetrahydrofuran-2-yl]methoxy-oxido-phosphoryl]oxy-oxido-phosphoryl] hydrogen phosphate
   44    46     1     0     0
SMALL
USER_CHARGES

@<TRIPOS>ATOM
      1 PG         -3.2206    8.3922    4.7539 P.3       1 ATP         1.5257
      2 O1G        -4.5155    8.0795    5.4700 O.co2     1 ATP        -0.8737
      3 O2G        -3.1517    9.4905    3.7163 O.co2     1 ATP        -0.8737
      4 O3G        -2.0617    8.6619    5.8720 O.3       1 ATP        -0.7971
      5 PB         -1.1961    6.7418    3.3678 P.3       1 ATP         1.6824
      6 O1B        -1.1704    7.5083    2.0642 O.co2     1 ATP        -0.8925
      7 O2B        -0.0866    6.8889    4.3850 O.co2     1 ATP        -0.8925
      8 O3B        -2.6250    7.0166    4.1084 O.3       1 ATP        -0.8047
      9 PA         -2.5400    4.4095    2.1393 P.3       1 ATP         1.5908
     10 O1A        -2.3768    4.8335    0.6957 O.co2     1 ATP        -0.8932
     11 O2A        -3.8713    4.5576    2.8432 O.co2     1 ATP        -0.8932
     12 O3A        -1.3978    5.1558    3.0383 O.3       1 ATP        -0.8088
     13 O5'        -2.0401    2.8620    2.3128 O.3       1 ATP        -0.5646
     14 C5'        -0.8811    2.4285    1.6206 C.3       1 ATP         0.2204
     15 C4'        -0.1994    1.3333    2.4288 C.3       1 ATP         0.0965
     16 O4'        -1.1285    0.2356    2.5840 O.3       1 ATP        -0.3907
     17 C3'         1.0324    0.7610    1.7344 C.3       1 ATP         0.0763
     18 O3'         1.9175    0.2377    2.7247 O.3       1 ATP        -0.5884
     19 C2'         0.4468   -0.3802    0.9263 C.3       1 ATP         0.0784
     20 O2'         1.3993   -1.3703    0.5961 O.3       1 ATP        -0.6085
     21 C1'        -0.6159   -0.9100    1.8769 C.3       1 ATP         0.2186
     22 N9         -1.7127   -1.6108    1.2130 N.pl3     1 ATP        -0.1699
     23 C8         -2.5485   -1.0808    0.2609 C.ar      1 ATP         0.4438
     24 N7         -3.4476   -1.9486   -0.1593 N.2       1 ATP        -0.6280
     25 C5         -3.1762   -3.0816    0.5530 C.ar      1 ATP         0.2109
     26 C6         -3.8510   -4.3579    0.5006 C.ar      1 ATP         0.6180
     27 N6         -4.8468   -4.5293   -0.2961 N.2       1 ATP        -0.8319
     28 N1         -3.2499   -5.2342    1.3937 N.pl3     1 ATP        -0.8664
     29 C2         -2.1646   -4.9275    2.2116 C.ar      1 ATP         0.5952
     30 N3         -1.5382   -3.7840    2.2778 N.2       1 ATP        -0.5599
     31 C4         -2.1054   -2.9018    1.4120 C.ar      1 ATP         0.0076
     32 HOG3       -1.1564    8.8794    5.5631 H         1 ATP         0.4101
     33 H5'1       -1.1767    2.0502    0.6368 H         1 ATP         0.0364
     34 H5'2       -0.2080    3.2814    1.4876 H         1 ATP         0.0364
     35 H4'         0.0403    1.7078    3.4343 H         1 ATP         0.0945
     36 H3'         1.5907    1.4859    1.1353 H         1 ATP         0.0703
     37 HO3'        2.6839   -0.1150    2.2479 H         1 ATP         0.4099
     38 H2'        -0.0017    0.0018    0.0005 H         1 ATP         0.0676
     39 HO2'        0.9369   -2.0558    0.0825 H         1 ATP         0.4291
     40 H1'        -0.1998   -1.6319    2.6178 H         1 ATP         0.0950
     41 H8         -2.4515   -0.0599   -0.0829 H         1 ATP         0.1135
     42 HN62       -5.1990   -5.4882   -0.2005 H         1 ATP         0.3588
     43 H2         -1.8555   -5.7783    2.8388 H         1 ATP         0.0302
     44 H44        -3.6312   -6.1750    1.4526 H         1 ATP         0.4215
@<TRIPOS>BOND
     1    1    2 2
     2    1    3 1
     3    1    4 1
     4    1    8 1
     5    4   32 1
     6    5    6 2
     7    5    7 1
     8    5    8 1
     9    5   12 1
    10    9   10 2
    11    9   11 1
    12    9   12 1
    13    9   13 1
    14   13   14 1
    15   14   15 1
    16   14   33 1
    17   14   34 1
    18   15   16 1
    19   15   17 1
    20   15   35 1
    21   16   21 1
    22   17   18 1
    23   17   19 1
    24   17   36 1
    25   18   37 1
    26   19   20 1
    27   19   21 1
    28   19   38 1
    29   20   39 1
    30   21   22 1
    31   21   40 1
    32   22   23 ar
    33   22   31 ar
    34   23   24 ar
    35   23   41 1
    36   24   25 ar
    37   25   26 ar
    38   25   31 ar
    39   26   27 2
    40   26   28 ar
    41   27   42 1
    42   28   29 ar
    43   28   44 1
    44   29   30 ar
    45   29   43 1
    46   30   31 ar
@<TRIPOS>SUBSTRUCTURE
     1 ATP         1 GROUP 0 A     ****
@<TRIPOS>MOLECULE
[[[3,4-dihydroxy-5-(6-imino-1~{H}-purin-9-yl)tetrahydrofuran-2-yl]methoxy-oxido-phosphoryl]oxy-oxido-phosphoryl] hydrogen phosphate
   44    46     1     0     0
SMALL
USER_CHARGES

@<TRIPOS>ATOM
      1 PG         -1.3823    8.8869   -1.2046 P.3       1 ATP         1.5257
      2 O1G        -0.0471    9.5791   -1.0443 O.co2     1 ATP        -0.8737
      3 O2G        -2.6651    9.5638   -0.7758 O.co2     1 ATP        -0.8737
      4 O3G        -1.5392    8.4167   -2.7603 O.3       1 ATP        -0.7971
      5 PB         -2.3895    6.1938   -0.5145 P.3       1 ATP         1.6824
      6 O1B        -3.6121    6.6295    0.2619 O.co2     1 ATP        -0.8925
      7 O2B        -2.5067    5.6563   -1.9234 O.co2     1 ATP        -0.8925
      8 O3B        -1.3036    7.4130   -0.5082 O.3       1 ATP        -0.8047
      9 PA         -0.0889    4.4444    0.1193 P.3       1 ATP         1.5908
     10 O1A         0.9661    5.5282    0.1728 O.co2     1 ATP        -0.8932
     11 O2A        -0.2001    3.5318   -1.0825 O.co2     1 ATP        -0.8932
     12 O3A        -1.5516    5.1216    0.3871 O.3       1 ATP        -0.8088
     13 O5'         0.0178    3.5131    1.4595 O.3       1 ATP        -0.5646
     14 C5'        -0.8811    2.4285    1.6206 C.3       1 ATP         0.2204
     15 C4'        -0.1994    1.3333    2.4288 C.3       1 ATP         0.0965
     16 O4'        -1.1285    0.2356    2.5840 O.3       1 ATP        -0.3907
     17 C3'         1.0324    0.7610    1.7344 C.3       1 ATP         0.0763
     18 O3'         1.9175    0.2377    2.7247 O.3       1 ATP        -0.5884
     19 C2'         0.4468   -0.3802    0.9263 C.3       1 ATP         0.0784
     20 O2'         1.3993   -1.3703    0.5961 O.3       1 ATP        -0.6085
     21 C1'        -0.6159   -0.9100    1.8769 C.3       1 ATP         0.2186
     22 N9         -1.7127   -1.6108    1.2130 N.pl3     1 ATP        -0.1699
     23 C8         -2.8662   -1.0361    0.7388 C.ar      1 ATP         0.4438
     24 N7         -3.6774   -1.9166    0.1867 N.2       1 ATP        -0.6280
     25 C5         -3.0159   -3.1045    0.3122 C.ar      1 ATP         0.2109
     26 C6         -3.4377   -4.4169   -0.1199 C.ar      1 ATP         0.6180
     27 N6         -4.5720   -4.5691   -0.7080 N.2       1 ATP        -0.8319
     28 N1         -2.4600   -5.3463    0.2071 N.pl3     1 ATP        -0.8664
     29 C2         -1.2595   -5.0554    0.8515 C.ar      1 ATP         0.5952
     30 N3         -0.8555   -3.8803    1.2516 N.2       1 ATP        -0.5599
     31 C4         -1.7946   -2.9457    0.9448 C.ar      1 ATP         0.0076
     32 HOG3       -2.3596    7.9491   -3.0262 H         1 ATP         0.4101
     33 H5'1       -1.7771    2.7849    2.1387 H         1 ATP         0.0364
     34 H5'2       -1.1654    2.0541    0.6320 H         1 ATP         0.0364
     35 H4'         0.0403    1.7078    3.4343 H         1 ATP         0.0945
     36 H3'         1.5907    1.4859    1.1353 H         1 ATP         0.0703
     37 HO3'        2.6839   -0.1150    2.2479 H         1 ATP         0.4099
     38 H2'        -0.0017    0.0018    0.0005 H         1 ATP         0.0676
     39 HO2'        2.0953   -0.9375    0.0709 H         1 ATP         0.4291
     40 H1'        -0.1998   -1.6319    2.6178 H         1 ATP         0.0950
     41 H8         -3.0558    0.0252    0.8256 H         1 ATP         0.1135
     42 HN62       -4.7047   -5.5592   -0.9421 H         1 ATP         0.3588
     43 H2         -0.6372   -5.9505    1.0077 H         1 ATP         0.0302
     44 H44        -2.6338   -6.3155   -0.0469 H         1 ATP         0.4215
@<TRIPOS>BOND
     1    1    2 2
     2    1    3 1
     3    1    4 1
     4    1    8 1
     5    4   32 1
     6    5    6 2
     7    5    7 1
     8    5    8 1
     9    5   12 1
    10    9   10 2
    11    9   11 1
    12    9   12 1
    13    9   13 1
    14   13   14 1
    15   14   15 1
    16   14   33 1
    17   14   34 1
    18   15   16 1
    19   15   17 1
    20   15   35 1
    21   16   21 1
    22   17   18 1
    23   17   19 1
    24   17   36 1
    25   18   37 1
    26   19   20 1
    27   19   21 1
    28   19   38 1
    29   20   39 1
    30   21   22 1
    31   21   40 1
    32   22   23 ar
    33   22   31 ar
    34   23   24 ar
    35   23   41 1
    36   24   25 ar
    37   25   26 ar
    38   25   31 ar
    39   26   27 2
    40   26   28 ar
    41   27   42 1
    42   28   29 ar
    43   28   44 1
    44   29   30 ar
    45   29   43 1
    46   30   31 ar
@<TRIPOS>SUBSTRUCTURE
     1 ATP         1 GROUP 0 A     ****
@<TRIPOS>MOLECULE
[[[3,4-dihydroxy-5-(6-imino-1~{H}-purin-9-yl)tetrahydrofuran-2-yl]methoxy-oxido-phosphoryl]oxy-oxido-phosphoryl] hydrogen phosphate
   44    46     1     0     0
SMALL
USER_CHARGES

@<TRIPOS>ATOM
      1 PG         -2.6953    5.9890   -2.8883 P.3       1 ATP         1.5257
      2 O1G        -1.9268    7.0964   -3.5742 O.co2     1 ATP        -0.8737
      3 O2G        -3.5019    6.2614   -1.6382 O.co2     1 ATP        -0.8737
      4 O3G        -3.6685    5.2750   -3.9879 O.3       1 ATP        -0.7971
      5 PB         -0.4009    4.6387   -1.6014 P.3       1 ATP         1.6824
      6 O1B         0.0900    3.2083   -1.5834 O.co2     1 ATP        -0.8925
      7 O2B         0.5385    5.7856   -1.9009 O.co2     1 ATP        -0.8925
      8 O3B        -1.6855    4.7387   -2.6042 O.3       1 ATP        -0.8047
      9 PA         -0.5790    5.0299    1.3261 P.3       1 ATP         1.5908
     10 O1A        -1.7341    5.2039    2.2883 O.co2     1 ATP        -0.8932
     11 O2A         0.5844    5.9975    1.3311 O.co2     1 ATP        -0.8932
     12 O3A        -1.1703    4.9456   -0.1947 O.3       1 ATP        -0.8088
     13 O5'         0.0178    3.5131    1.4595 O.3       1 ATP        -0.5646
     14 C5'        -0.8811    2.4285    1.6206 C.3       1 ATP         0.2204
     15 C4'        -0.1994    1.3333    2.4288 C.3       1 ATP         0.0965
     16 O4'        -1.1285    0.2356    2.5840 O.3       1 ATP        -0.3907
     17 C3'         1.0324    0.7610    1.7344 C.3       1 ATP         0.0763
     18 O3'         1.9175    0.2377    2.7247 O.3       1 ATP        -0.5884
     19 C2'         0.4468   -0.3802    0.9263 C.3       1 ATP         0.0784
     20 O2'         1.3993   -1.3703    0.5961 O.3       1 ATP        -0.6085
     21 C1'        -0.6159   -0.9100    1.8769 C.3       1 ATP         0.2186
     22 N9         -1.7127   -1.6108    1.2130 N.pl3     1 ATP        -0.1699
     23 C8         -2.8662   -1.0361    0.7388 C.ar      1 ATP         0.4438
     24 N7         -3.6774   -1.9166    0.1867 N.2       1 ATP        -0.6280
     25 C5         -3.0159   -3.1045    0.3122 C.ar      1 ATP         0.2109
     26 C6         -3.4377   -4.4169   -0.1199 C.ar      1 ATP         0.6180
     27 N6         -4.5720   -4.5691   -0.7080 N.2       1 ATP        -0.8319
     28 N1         -2.4600   -5.3463    0.2071 N.pl3     1 ATP        -0.8664
     29 C2         -1.2595   -5.0554    0.8515 C.ar      1 ATP         0.5952
     30 N3         -0.8555   -3.8803    1.2516 N.2       1 ATP        -0.5599
     31 C4         -1.7946   -2.9457    0.9448 C.ar      1 ATP         0.0076
     32 HOG3       -4.2369    4.5311   -3.6951 H         1 ATP         0.4101
     33 H5'1       -1.7771    2.7849    2.1387 H         1 ATP         0.0364
     34 H5'2       -1.1654    2.0541    0.6320 H         1 ATP         0.0364
     35 H4'         0.0403    1.7078    3.4343 H         1 ATP         0.0945
     36 H3'         1.5907    1.4859    1.1353 H         1 ATP         0.0703
     37 HO3'        2.6839   -0.1150    2.2479 H         1 ATP         0.4099
     38 H2'        -0.0017    0.0018    0.0005 H         1 ATP         0.0676
     39 HO2'        0.9369   -2.0558    0.0825 H         1 ATP         0.4291
     40 H1'        -0.1998   -1.6319    2.6178 H         1 ATP         0.0950
     41 H8         -3.0558    0.0252    0.8256 H         1 ATP         0.1135
     42 HN62       -4.7047   -5.5592   -0.9421 H         1 ATP         0.3588
     43 H2         -0.6372   -5.9505    1.0077 H         1 ATP         0.0302
     44 H44        -2.6338   -6.3155   -0.0469 H         1 ATP         0.4215
@<TRIPOS>BOND
     1    1    2 2
     2    1    3 1
     3    1    4 1
     4    1    8 1
     5    4   32 1
     6    5    6 2
     7    5    7 1
     8    5    8 1
     9    5   12 1
    10    9   10 2
    11    9   11 1
    12    9   12 1
    13    9   13 1
    14   13   14 1
    15   14   15 1
    16   14   33 1
    17   14   34 1
    18   15   16 1
    19   15   17 1
    20   15   35 1
    21   16   21 1
    22   17   18 1
    23   17   19 1
    24   17   36 1
    25   18   37 1
    26   19   20 1
    27   19   21 1
    28   19   38 1
    29   20   39 1
    30   21   22 1
    31   21   40 1
    32   22   23 ar
    33   22   31 ar
    34   23   24 ar
    35   23   41 1
    36   24   25 ar
    37   25   26 ar
    38   25   31 ar
    39   26   27 2
    40   26   28 ar
    41   27   42 1
    42   28   29 ar
    43   28   44 1
    44   29   30 ar
    45   29   43 1
    46   30   31 ar
@<TRIPOS>SUBSTRUCTURE
     1 ATP         1 GROUP 0 A     ****
@<TRIPOS>MOLECULE
[[[3,4-dihydroxy-5-(6-imino-1~{H}-purin-9-yl)tetrahydrofuran-2-yl]methoxy-oxido-phosphoryl]oxy-oxido-phosphoryl] hydrogen phosphate
   44    46     1     0     0
SMALL
USER_CHARGES

@<TRIPOS>ATOM
      1 PG          2.1924    4.9291   -1.9190 P.3       1 ATP         1.5257
      2 O1G         2.4167    4.7386   -3.4026 O.co2     1 ATP        -0.8737
      3 O2G         2.2490    3.7549   -0.9673 O.co2     1 ATP        -0.8737
      4 O3G         3.2183    6.0807   -1.3830 O.3       1 ATP        -0.7971
      5 PB         -0.7462    5.2493   -1.9900 P.3       1 ATP         1.6824
      6 O1B        -1.6939    6.2949   -1.4457 O.co2     1 ATP        -0.8925
      7 O2B        -0.8380    4.7800   -3.4249 O.co2     1 ATP        -0.8925
      8 O3B         0.7865    5.7264   -1.6924 O.3       1 ATP        -0.8047
      9 PA         -1.9976    2.8867   -0.7222 P.3       1 ATP         1.5908
     10 O1A        -2.2806    2.1154   -1.9932 O.co2     1 ATP        -0.8932
     11 O2A        -3.1068    3.6179    0.0021 O.co2     1 ATP        -0.8932
     12 O3A        -0.7864    3.9453   -1.0089 O.3       1 ATP        -0.8088
     13 O5'        -1.2434    1.9104    0.3515 O.3       1 ATP        -0.5646
     14 C5'        -0.8811    2.4285    1.6206 C.3       1 ATP         0.2204
     15 C4'        -0.1994    1.3333    2.4288 C.3       1 ATP         0.0965
     16 O4'        -1.1285    0.2356    2.5840 O.3       1 ATP        -0.3907
     17 C3'         1.0324    0.7610    1.7344 C.3       1 ATP         0.0763
     18 O3'         1.9175    0.2377    2.7247 O.3       1 ATP        -0.5884
     19 C2'         0.4468   -0.3802    0.9263 C.3       1 ATP         0.0784
     20 O2'         1.3993   -1.3703    0.5961 O.3       1 ATP        -0.6085
     21 C1'        -0.6159   -0.9100    1.8769 C.3       1 ATP         0.2186
     22 N9         -1.7127   -1.6108    1.2130 N.pl3     1 ATP        -0.1699
     23 C8         -2.8662   -1.0361    0.7388 C.ar      1 ATP         0.4438
     24 N7         -3.6774   -1.9166    0.1867 N.2       1 ATP        -0.6280
     25 C5         -3.0159   -3.1045    0.3122 C.ar      1 ATP         0.2109
     26 C6         -3.4377   -4.4169   -0.1199 C.ar      1 ATP         0.6180
     27 N6         -4.5720   -4.5691   -0.7080 N.2       1 ATP        -0.8319
     28 N1         -2.4600   -5.3463    0.2071 N.pl3     1 ATP        -0.8664
     29 C2         -1.2595   -5.0554    0.8515 C.ar      1 ATP         0.5952
     30 N3         -0.8555   -3.8803    1.2516 N.2       1 ATP        -0.5599
     31 C4         -1.7946   -2.9457    0.9448 C.ar      1 ATP         0.0076
     32 HOG3        3.1952    6.3207   -0.4322 H         1 ATP         0.4101
     33 H5'1       -0.2033    3.2760    1.4769 H         1 ATP         0.0364
     34 H5'2       -1.7841    2.7762    2.1323 H         1 ATP         0.0364
     35 H4'         0.0403    1.7078    3.4343 H         1 ATP         0.0945
     36 H3'         1.5907    1.4859    1.1353 H         1 ATP         0.0703
     37 HO3'        2.1521    0.9800    3.3017 H         1 ATP         0.4099
     38 H2'        -0.0017    0.0018    0.0005 H         1 ATP         0.0676
     39 HO2'        2.0953   -0.9375    0.0709 H         1 ATP         0.4291
     40 H1'        -0.1998   -1.6319    2.6178 H         1 ATP         0.0950
     41 H8         -3.0558    0.0252    0.8256 H         1 ATP         0.1135
     42 HN62       -4.7047   -5.5592   -0.9421 H         1 ATP         0.3588
     43 H2         -0.6372   -5.9505    1.0077 H         1 ATP         0.0302
     44 H44        -2.6338   -6.3155   -0.0469 H         1 ATP         0.4215
@<TRIPOS>BOND
     1    1    2 2
     2    1    3 1
     3    1    4 1
     4    1    8 1
     5    4   32 1
     6    5    6 2
     7    5    7 1
     8    5    8 1
     9    5   12 1
    10    9   10 2
    11    9   11 1
    12    9   12 1
    13    9   13 1
    14   13   14 1
    15   14   15 1
    16   14   33 1
    17   14   34 1
    18   15   16 1
    19   15   17 1
    20   15   35 1
    21   16   21 1
    22   17   18 1
    23   17   19 1
    24   17   36 1
    25   18   37 1
    26   19   20 1
    27   19   21 1
    28   19   38 1
    29   20   39 1
    30   21   22 1
    31   21   40 1
    32   22   23 ar
    33   22   31 ar
    34   23   24 ar
    35   23   41 1
    36   24   25 ar
    37   25   26 ar
    38   25   31 ar
    39   26   27 2
    40   26   28 ar
    41   27   42 1
    42   28   29 ar
    43   28   44 1
    44   29   30 ar
    45   29   43 1
    46   30   31 ar
@<TRIPOS>SUBSTRUCTURE
     1 ATP         1 GROUP 0 A     ****
@<TRIPOS>MOLECULE
[[[3,4-dihydroxy-5-(6-imino-1~{H}-purin-9-yl)tetrahydrofuran-2-yl]methoxy-oxido-phosphoryl]oxy-oxido-phosphoryl] hydrogen phosphate
   44    46     1     0     0
SMALL
USER_CHARGES

@<TRIPOS>ATOM
      1 PG         -2.4868    7.3770   -2.2992 P.3       1 ATP         1.5257
      2 O1G        -1.1531    7.9497   -2.7243 O.co2     1 ATP        -0.8737
      3 O2G        -3.6712    8.2795   -2.0338 O.co2     1 ATP        -0.8737
      4 O3G        -2.9332    6.2414   -3.3841 O.3       1 ATP        -0.7971
      5 PB         -1.7954    6.7817    0.5135 P.3       1 ATP         1.6824
      6 O1B        -0.3643    7.2695    0.4761 O.co2     1 ATP        -0.8925
      7 O2B        -2.8858    7.6018    1.1661 O.co2     1 ATP        -0.8925
      8 O3B        -2.2606    6.4072   -1.0061 O.3       1 ATP        -0.8047
      9 PA         -1.4709    4.7755    2.6641 P.3       1 ATP         1.5908
     10 O1A        -2.5003    5.3468    3.6150 O.co2     1 ATP        -0.8932
     11 O2A         0.0077    4.9865    2.9069 O.co2     1 ATP        -0.8932
     12 O3A        -1.8194    5.2782    1.1490 O.3       1 ATP        -0.8088
     13 O5'        -1.7336    3.1724    2.4750 O.3       1 ATP        -0.5646
     14 C5'        -0.8811    2.4285    1.6206 C.3       1 ATP         0.2204
     15 C4'        -0.1994    1.3333    2.4288 C.3       1 ATP         0.0965
     16 O4'        -1.1285    0.2356    2.5840 O.3       1 ATP        -0.3907
     17 C3'         1.0324    0.7610    1.7344 C.3       1 ATP         0.0763
     18 O3'         1.9175    0.2377    2.7247 O.3       1 ATP        -0.5884
     19 C2'         0.4468   -0.3802    0.9263 C.3       1 ATP         0.0784
     20 O2'         1.3993   -1.3703    0.5961 O.3       1 ATP        -0.6085
     21 C1'        -0.6159   -0.9100    1.8769 C.3       1 ATP         0.2186
     22 N9         -1.7127   -1.6108    1.2130 N.pl3     1 ATP        -0.1699
     23 C8         -2.8662   -1.0361    0.7388 C.ar      1 ATP         0.4438
     24 N7         -3.6774   -1.9166    0.1867 N.2       1 ATP        -0.6280
     25 C5         -3.0159   -3.1045    0.3122 C.ar      1 ATP         0.2109
     26 C6         -3.4377   -4.4169   -0.1199 C.ar      1 ATP         0.6180
     27 N6         -4.5720   -4.5691   -0.7080 N.2       1 ATP        -0.8319
     28 N1         -2.4600   -5.3463    0.2071 N.pl3     1 ATP        -0.8664
     29 C2         -1.2595   -5.0554    0.8515 C.ar      1 ATP         0.5952
     30 N3         -0.8555   -3.8803    1.2516 N.2       1 ATP        -0.5599
     31 C4         -1.7946   -2.9457    0.9448 C.ar      1 ATP         0.0076
     32 HOG3       -3.7841    5.7732   -3.2466 H         1 ATP         0.4101
     33 H5'1       -1.4800    1.9927    0.8146 H         1 ATP         0.0364
     34 H5'2       -0.1367    3.1040    1.1872 H         1 ATP         0.0364
     35 H4'         0.0403    1.7078    3.4343 H         1 ATP         0.0945
     36 H3'         1.5907    1.4859    1.1353 H         1 ATP         0.0703
     37 HO3'        2.1521    0.9800    3.3017 H         1 ATP         0.4099
     38 H2'        -0.0017    0.0018    0.0005 H         1 ATP         0.0676
     39 HO2'        0.9369   -2.0558    0.0825 H         1 ATP         0.4291
     40 H1'        -0.1998   -1.6319    2.6178 H         1 ATP         0.0950
     41 H8         -3.0558    0.0252    0.8256 H         1 ATP         0.1135
     42 HN62       -4.7047   -5.5592   -0.9421 H         1 ATP         0.3588
     43 H2         -0.6372   -5.9505    1.0077 H         1 ATP         0.0302
     44 H44        -2.6338   -6.3155   -0.0469 H         1 ATP         0.4215
@<TRIPOS>BOND
     1    1    2 2
     2    1    3 1
     3    1    4 1
     4    1    8 1
     5    4   32 1
     6    5    6 2
     7    5    7 1
     8    5    8 1
     9    5   12 1
    10    9   10 2
    11    9   11 1
    12    9   12 1
    13    9   13 1
    14   13   14 1
    15   14   15 1
    16   14   33 1
    17   14   34 1
    18   15   16 1
    19   15   17 1
    20   15   35 1
    21   16   21 1
    22   17   18 1
    23   17   19 1
    24   17   36 1
    25   18   37 1
    26   19   20 1
    27   19   21 1
    28   19   38 1
    29   20   39 1
    30   21   22 1
    31   21   40 1
    32   22   23 ar
    33   22   31 ar
    34   23   24 ar
    35   23   41 1
    36   24   25 ar
    37   25   26 ar
    38   25   31 ar
    39   26   27 2
    40   26   28 ar
    41   27   42 1
    42   28   29 ar
    43   28   44 1
    44   29   30 ar
    45   29   43 1
    46   30   31 ar
@<TRIPOS>SUBSTRUCTURE
     1 ATP         1 GROUP 0 A     ****
@<TRIPOS>MOLECULE
[[[3,4-dihydroxy-5-(6-imino-1~{H}-purin-9-yl)tetrahydrofuran-2-yl]methoxy-oxido-phosphoryl]oxy-oxido-phosphoryl] hydrogen phosphate
   44    46     1     0     0
SMALL
USER_CHARGES

@<TRIPOS>ATOM
      1 PG         -4.6330    8.4167    1.7149 P.3       1 ATP         1.5257
      2 O1G        -3.7238    9.5193    2.2101 O.co2     1 ATP        -0.8737
      3 O2G        -5.9615    8.1450    2.3849 O.co2     1 ATP        -0.8737
      4 O3G        -4.8931    8.6370    0.1181 O.3       1 ATP        -0.7971
      5 PB         -2.3698    6.7018    0.8897 P.3       1 ATP         1.6824
      6 O1B        -2.5769    6.8015   -0.6051 O.co2     1 ATP        -0.8925
      7 O2B        -1.2694    7.4752    1.5814 O.co2     1 ATP        -0.8925
      8 O3B        -3.7853    7.0242    1.6368 O.3       1 ATP        -0.8047
      9 PA         -2.1561    4.4278    2.7707 P.3       1 ATP         1.5908
     10 O1A        -3.4710    4.6479    3.4867 O.co2     1 ATP        -0.8932
     11 O2A        -0.8475    4.8296    3.4155 O.co2     1 ATP        -0.8932
     12 O3A        -2.2377    5.1262    1.2959 O.3       1 ATP        -0.8088
     13 O5'        -2.0401    2.8620    2.3128 O.3       1 ATP        -0.5646
     14 C5'        -0.8811    2.4285    1.6206 C.3       1 ATP         0.2204
     15 C4'        -0.1994    1.3333    2.4288 C.3       1 ATP         0.0965
     16 O4'        -1.1285    0.2356    2.5840 O.3       1 ATP        -0.3907
     17 C3'         1.0324    0.7610    1.7344 C.3       1 ATP         0.0763
     18 O3'         1.9175    0.2377    2.7247 O.3       1 ATP        -0.5884
     19 C2'         0.4468   -0.3802    0.9263 C.3       1 ATP         0.0784
     20 O2'         1.3993   -1.3703    0.5961 O.3       1 ATP        -0.6085
     21 C1'        -0.6159   -0.9100    1.8769 C.3       1 ATP         0.2186
     22 N9         -1.7127   -1.6108    1.2130 N.pl3     1 ATP        -0.1699
     23 C8         -2.8662   -1.0361    0.7388 C.ar      1 ATP         0.4438
     24 N7         -3.6774   -1.9166    0.1867 N.2       1 ATP        -0.6280
     25 C5         -3.0159   -3.1045    0.3122 C.ar      1 ATP         0.2109
     26 C6         -3.4377   -4.4169   -0.1199 C.ar      1 ATP         0.6180
     27 N6         -4.5720   -4.5691   -0.7080 N.2       1 ATP        -0.8319
     28 N1         -2.4600   -5.3463    0.2071 N.pl3     1 ATP        -0.8664
     29 C2         -1.2595   -5.0554    0.8515 C.ar      1 ATP         0.5952
     30 N3         -0.8555   -3.8803    1.2516 N.2       1 ATP        -0.5599
     31 C4         -1.7946   -2.9457    0.9448 C.ar      1 ATP         0.0076
     32 HOG3       -5.4684    7.9978   -0.3538 H         1 ATP         0.4101
     33 H5'1       -1.1767    2.0502    0.6368 H         1 ATP         0.0364
     34 H5'2       -0.2080    3.2814    1.4876 H         1 ATP         0.0364
     35 H4'         0.0403    1.7078    3.4343 H         1 ATP         0.0945
     36 H3'         1.5907    1.4859    1.1353 H         1 ATP         0.0703
     37 HO3'        2.6839   -0.1150    2.2479 H         1 ATP         0.4099
     38 H2'        -0.0017    0.0018    0.0005 H         1 ATP         0.0676
     39 HO2'        2.0953   -0.9375    0.0709 H         1 ATP         0.4291
     40 H1'        -0.1998   -1.6319    2.6178 H         1 ATP         0.0950
     41 H8         -3.0558    0.0252    0.8256 H         1 ATP         0.1135
     42 HN62       -4.7047   -5.5592   -0.9421 H         1 ATP         0.3588
     43 H2         -0.6372   -5.9505    1.0077 H         1 ATP         0.0302
     44 H44        -2.6338   -6.3155   -0.0469 H         1 ATP         0.4215
@<TRIPOS>BOND
     1    1    2 2
     2    1    3 1
     3    1    4 1
     4    1    8 1
     5    4   32 1
     6    5    6 2
     7    5    7 1
     8    5    8 1
     9    5   12 1
    10    9   10 2
    11    9   11 1
    12    9   12 1
    13    9   13 1
    14   13   14 1
    15   14   15 1
    16   14   33 1
    17   14   34 1
    18   15   16 1
    19   15   17 1
    20   15   35 1
    21   16   21 1
    22   17   18 1
    23   17   19 1
    24   17   36 1
    25   18   37 1
    26   19   20 1
    27   19   21 1
    28   19   38 1
    29   20   39 1
    30   21   22 1
    31   21   40 1
    32   22   23 ar
    33   22   31 ar
    34   23   24 ar
    35   23   41 1
    36   24   25 ar
    37   25   26 ar
    38   25   31 ar
    39   26   27 2
    40   26   28 ar
    41   27   42 1
    42   28   29 ar
    43   28   44 1
    44   29   30 ar
    45   29   43 1
    46   30   31 ar
@<TRIPOS>SUBSTRUCTURE
     1 ATP         1 GROUP 0 A     ****
@<TRIPOS>MOLECULE
[[[3,4-dihydroxy-5-(6-imino-1~{H}-purin-9-yl)tetrahydrofuran-2-yl]methoxy-oxido-phosphoryl]oxy-oxido-phosphoryl] hydrogen phosphate
   44    46     1     0     0
SMALL
USER_CHARGES

@<TRIPOS>ATOM
      1 PG         -6.1717    3.2558   -3.0892 P.3       1 ATP         1.5257
      2 O1G        -6.0182    4.6459   -3.6651 O.co2     1 ATP        -0.8737
      3 O2G        -7.5009    2.7827   -2.5442 O.co2     1 ATP        -0.8737
      4 O3G        -5.6513    2.1751   -4.1970 O.3       1 ATP        -0.7971
      5 PB         -4.8232    3.7367   -0.5019 P.3       1 ATP         1.6824
      6 O1B        -4.4804    5.1932   -0.7217 O.co2     1 ATP        -0.8925
      7 O2B        -5.9670    3.3285    0.3995 O.co2     1 ATP        -0.8925
      8 O3B        -5.0212    3.0204   -1.9557 O.3       1 ATP        -0.8047
      9 PA         -1.9976    2.8867   -0.7222 P.3       1 ATP         1.5908
     10 O1A        -1.3784    4.2667   -0.6708 O.co2     1 ATP        -0.8932
     11 O2A        -2.1191    2.1418   -2.0338 O.co2     1 ATP        -0.8932
     12 O3A        -3.4752    2.9476   -0.0275 O.3       1 ATP        -0.8088
     13 O5'        -1.2434    1.9104    0.3515 O.3       1 ATP        -0.5646
     14 C5'        -0.8811    2.4285    1.6206 C.3       1 ATP         0.2204
     15 C4'        -0.1994    1.3333    2.4288 C.3       1 ATP         0.0965
     16 O4'        -1.1285    0.2356    2.5840 O.3       1 ATP        -0.3907
     17 C3'         1.0324    0.7610    1.7344 C.3       1 ATP         0.0763
     18 O3'         1.9175    0.2377    2.7247 O.3       1 ATP        -0.5884
     19 C2'         0.4468   -0.3802    0.9263 C.3       1 ATP         0.0784
     20 O2'         1.3993   -1.3703    0.5961 O.3       1 ATP        -0.6085
     21 C1'        -0.6159   -0.9100    1.8769 C.3       1 ATP         0.2186
     22 N9         -1.7127   -1.6108    1.2130 N.pl3     1 ATP        -0.1699
     23 C8         -2.8662   -1.0361    0.7388 C.ar      1 ATP         0.4438
     24 N7         -3.6774   -1.9166    0.1867 N.2       1 ATP        -0.6280
     25 C5         -3.0159   -3.1045    0.3122 C.ar      1 ATP         0.2109
     26 C6         -3.4377   -4.4169   -0.1199 C.ar      1 ATP         0.6180
     27 N6         -4.5720   -4.5691   -0.7080 N.2       1 ATP        -0.8319
     28 N1         -2.4600   -5.3463    0.2071 N.pl3     1 ATP        -0.8664
     29 C2         -1.2595   -5.0554    0.8515 C.ar      1 ATP         0.5952
     30 N3         -0.8555   -3.8803    1.2516 N.2       1 ATP        -0.5599
     31 C4         -1.7946   -2.9457    0.9448 C.ar      1 ATP         0.0076
     32 HOG3       -5.6869    1.2211   -3.9712 H         1 ATP         0.4101
     33 H5'1       -0.2033    3.2760    1.4769 H         1 ATP         0.0364
     34 H5'2       -1.7841    2.7762    2.1323 H         1 ATP         0.0364
     35 H4'         0.0403    1.7078    3.4343 H         1 ATP         0.0945
     36 H3'         1.5907    1.4859    1.1353 H         1 ATP         0.0703
     37 HO3'        2.6839   -0.1150    2.2479 H         1 ATP         0.4099
     38 H2'        -0.0017    0.0018    0.0005 H         1 ATP         0.0676
     39 HO2'        2.0953   -0.9375    0.0709 H         1 ATP         0.4291
     40 H1'        -0.1998   -1.6319    2.6178 H         1 ATP         0.0950
     41 H8         -3.0558    0.0252    0.8256 H         1 ATP         0.1135
     42 HN62       -4.7047   -5.5592   -0.9421 H         1 ATP         0.3588
     43 H2         -0.6372   -5.9505    1.0077 H         1 ATP         0.0302
     44 H44        -2.6338   -6.3155   -0.0469 H         1 ATP         0.4215
@<TRIPOS>BOND
     1    1    2 2
     2    1    3 1
     3    1    4 1
     4    1    8 1
     5    4   32 1
     6    5    6 2
     7    5    7 1
     8    5    8 1
     9    5   12 1
    10    9   10 2
    11    9   11 1
    12    9   12 1
    13    9   13 1
    14   13   14 1
    15   14   15 1
    16   14   33 1
    17   14   34 1
    18   15   16 1
    19   15   17 1
    20   15   35 1
    21   16   21 1
    22   17   18 1
    23   17   19 1
    24   17   36 1
    25   18   37 1
    26   19   20 1
    27   19   21 1
    28   19   38 1
    29   20   39 1
    30   21   22 1
    31   21   40 1
    32   22   23 ar
    33   22   31 ar
    34   23   24 ar
    35   23   41 1
    36   24   25 ar
    37   25   26 ar
    38   25   31 ar
    39   26   27 2
    40   26   28 ar
    41   27   42 1
    42   28   29 ar
    43   28   44 1
    44   29   30 ar
    45   29   43 1
    46   30   31 ar
@<TRIPOS>SUBSTRUCTURE
     1 ATP         1 GROUP 0 A     ****
@<TRIPOS>MOLECULE
[[[3,4-dihydroxy-5-(6-imino-1~{H}-purin-9-yl)tetrahydrofuran-2-yl]methoxy-oxido-phosphoryl]oxy-oxido-phosphoryl] hydrogen phosphate
   44    46     1     0     0
SMALL
USER_CHARGES

@<TRIPOS>ATOM
      1 PG          0.8259    8.0584    5.5367 P.3       1 ATP         1.5257
      2 O1G         1.3432    7.6395    6.8948 O.co2     1 ATP        -0.8737
      3 O2G        -0.3071    9.0522    5.4092 O.co2     1 ATP        -0.8737
      4 O3G         2.0850    8.5902    4.6435 O.3       1 ATP        -0.7971
      5 PB         -0.7129    5.6110    4.9154 P.3       1 ATP         1.6824
      6 O1B        -0.4054    4.8521    6.1871 O.co2     1 ATP        -0.8925
      7 O2B        -2.0580    6.2685    4.7013 O.co2     1 ATP        -0.8925
      8 O3B         0.4578    6.7230    4.6735 O.3       1 ATP        -0.8047
      9 PA         -0.3962    4.9846    2.0409 P.3       1 ATP         1.5908
     10 O1A         0.7136    5.9719    1.7515 O.co2     1 ATP        -0.8932
     11 O2A        -1.8200    5.2757    1.6193 O.co2     1 ATP        -0.8932
     12 O3A        -0.3932    4.6446    3.6391 O.3       1 ATP        -0.8088
     13 O5'         0.0178    3.5131    1.4595 O.3       1 ATP        -0.5646
     14 C5'        -0.8811    2.4285    1.6206 C.3       1 ATP         0.2204
     15 C4'        -0.1994    1.3333    2.4288 C.3       1 ATP         0.0965
     16 O4'        -1.1285    0.2356    2.5840 O.3       1 ATP        -0.3907
     17 C3'         1.0324    0.7610    1.7344 C.3       1 ATP         0.0763
     18 O3'         1.9175    0.2377    2.7247 O.3       1 ATP        -0.5884
     19 C2'         0.4468   -0.3802    0.9263 C.3       1 ATP         0.0784
     20 O2'         1.3993   -1.3703    0.5961 O.3       1 ATP        -0.6085
     21 C1'        -0.6159   -0.9100    1.8769 C.3       1 ATP         0.2186
     22 N9         -1.7127   -1.6108    1.2130 N.pl3     1 ATP        -0.1699
     23 C8         -2.8662   -1.0361    0.7388 C.ar      1 ATP         0.4438
     24 N7         -3.6774   -1.9166    0.1867 N.2       1 ATP        -0.6280
     25 C5         -3.0159   -3.1045    0.3122 C.ar      1 ATP         0.2109
     26 C6         -3.4377   -4.4169   -0.1199 C.ar      1 ATP         0.6180
     27 N6         -4.5720   -4.5691   -0.7080 N.2       1 ATP        -0.8319
     28 N1         -2.4600   -5.3463    0.2071 N.pl3     1 ATP        -0.8664
     29 C2         -1.2595   -5.0554    0.8515 C.ar      1 ATP         0.5952
     30 N3         -0.8555   -3.8803    1.2516 N.2       1 ATP        -0.5599
     31 C4         -1.7946   -2.9457    0.9448 C.ar      1 ATP         0.0076
     32 HOG3        1.9110    8.9001    3.7292 H         1 ATP         0.4101
     33 H5'1       -1.7771    2.7849    2.1387 H         1 ATP         0.0364
     34 H5'2       -1.1654    2.0541    0.6320 H         1 ATP         0.0364
     35 H4'         0.0403    1.7078    3.4343 H         1 ATP         0.0945
     36 H3'         1.5907    1.4859    1.1353 H         1 ATP         0.0703
     37 HO3'        2.6839   -0.1150    2.2479 H         1 ATP         0.4099
     38 H2'        -0.0017    0.0018    0.0005 H         1 ATP         0.0676
     39 HO2'        0.9369   -2.0558    0.0825 H         1 ATP         0.4291
     40 H1'        -0.1998   -1.6319    2.6178 H         1 ATP         0.0950
     41 H8         -3.0558    0.0252    0.8256 H         1 ATP         0.1135
     42 HN62       -4.7047   -5.5592   -0.9421 H         1 ATP         0.3588
     43 H2         -0.6372   -5.9505    1.0077 H         1 ATP         0.0302
     44 H44        -2.6338   -6.3155   -0.0469 H         1 ATP         0.4215
@<TRIPOS>BOND
     1    1    2 2
     2    1    3 1
     3    1    4 1
     4    1    8 1
     5    4   32 1
     6    5    6 2
     7    5    7 1
     8    5    8 1
     9    5   12 1
    10    9   10 2
    11    9   11 1
    12    9   12 1
    13    9   13 1
    14   13   14 1
    15   14   15 1
    16   14   33 1
    17   14   34 1
    18   15   16 1
    19   15   17 1
    20   15   35 1
    21   16   21 1
    22   17   18 1
    23   17   19 1
    24   17   36 1
    25   18   37 1
    26   19   20 1
    27   19   21 1
    28   19   38 1
    29   20   39 1
    30   21   22 1
    31   21   40 1
    32   22   23 ar
    33   22   31 ar
    34   23   24 ar
    35   23   41 1
    36   24   25 ar
    37   25   26 ar
    38   25   31 ar
    39   26   27 2
    40   26   28 ar
    41   27   42 1
    42   28   29 ar
    43   28   44 1
    44   29   30 ar
    45   29   43 1
    46   30   31 ar
@<TRIPOS>SUBSTRUCTURE
     1 ATP         1 GROUP 0 A     ****
@<TRIPOS>MOLECULE
[[[3,4-dihydroxy-5-(6-imino-1~{H}-purin-9-yl)tetrahydrofuran-2-yl]methoxy-oxido-phosphoryl]oxy-oxido-phosphoryl] hydrogen phosphate
   44    46     1     0     0
SMALL
USER_CHARGES

@<TRIPOS>ATOM
      1 PG          0.0102    8.3342    0.8291 P.3       1 ATP         1.5257
      2 O1G        -0.4782    9.4784    1.6893 O.co2     1 ATP        -0.8737
      3 O2G        -0.8512    7.7732   -0.2803 O.co2     1 ATP        -0.8737
      4 O3G         1.4628    8.7392    0.2032 O.3       1 ATP        -0.7971
      5 PB         -0.3859    6.1552    2.7883 P.3       1 ATP         1.6824
      6 O1B         0.5120    5.0654    3.3303 O.co2     1 ATP        -0.8925
      7 O2B        -1.1982    7.0334    3.7137 O.co2     1 ATP        -0.8925
      8 O3B         0.4908    7.1104    1.7960 O.3       1 ATP        -0.8047
      9 PA         -2.5926    4.4187    1.8556 P.3       1 ATP         1.5908
     10 O1A        -3.1164    4.0395    0.4873 O.co2     1 ATP        -0.8932
     11 O2A        -3.5302    4.9262    2.9294 O.co2     1 ATP        -0.8932
     12 O3A        -1.3848    5.5039    1.6734 O.3       1 ATP        -0.8088
     13 O5'        -1.7336    3.1724    2.4750 O.3       1 ATP        -0.5646
     14 C5'        -0.8811    2.4285    1.6206 C.3       1 ATP         0.2204
     15 C4'        -0.1994    1.3333    2.4288 C.3       1 ATP         0.0965
     16 O4'        -1.1285    0.2356    2.5840 O.3       1 ATP        -0.3907
     17 C3'         1.0324    0.7610    1.7344 C.3       1 ATP         0.0763
     18 O3'         1.9175    0.2377    2.7247 O.3       1 ATP        -0.5884
     19 C2'         0.4468   -0.3802    0.9263 C.3       1 ATP         0.0784
     20 O2'         1.3993   -1.3703    0.5961 O.3       1 ATP        -0.6085
     21 C1'        -0.6159   -0.9100    1.8769 C.3       1 ATP         0.2186
     22 N9         -1.7127   -1.6108    1.2130 N.pl3     1 ATP        -0.1699
     23 C8         -1.7690   -2.9583    0.9549 C.ar      1 ATP         0.4438
     24 N7         -2.8827   -3.3076    0.3418 N.2       1 ATP        -0.6280
     25 C5         -3.5683   -2.1351    0.2017 C.ar      1 ATP         0.2109
     26 C6         -4.8617   -1.9185   -0.4044 C.ar      1 ATP         0.6180
     27 N6         -5.5166   -2.9094   -0.8993 N.2       1 ATP        -0.8319
     28 N1         -5.1837   -0.5701   -0.3344 N.pl3     1 ATP        -0.8664
     29 C2         -4.3821    0.4180    0.2330 C.ar      1 ATP         0.5952
     30 N3         -3.2117    0.2488    0.7860 N.2       1 ATP        -0.5599
     31 C4         -2.8672   -1.0657    0.7327 C.ar      1 ATP         0.0076
     32 HOG3        1.9148    8.0950   -0.3824 H         1 ATP         0.4101
     33 H5'1       -1.4800    1.9927    0.8146 H         1 ATP         0.0364
     34 H5'2       -0.1367    3.1040    1.1872 H         1 ATP         0.0364
     35 H4'         0.0403    1.7078    3.4343 H         1 ATP         0.0945
     36 H3'         1.5907    1.4859    1.1353 H         1 ATP         0.0703
     37 HO3'        2.1521    0.9800    3.3017 H         1 ATP         0.4099
     38 H2'        -0.0017    0.0018    0.0005 H         1 ATP         0.0676
     39 HO2'        0.9369   -2.0558    0.0825 H         1 ATP         0.4291
     40 H1'        -0.1998   -1.6319    2.6178 H         1 ATP         0.0950
     41 H8         -0.9697   -3.6300    1.2371 H         1 ATP         0.1135
     42 HN62       -6.4060   -2.5723   -1.2840 H         1 ATP         0.3588
     43 H2         -4.8409    1.4176    0.1757 H         1 ATP         0.0302
     44 H44        -6.0768   -0.2826   -0.7263 H         1 ATP         0.4215
@<TRIPOS>BOND
     1    1    2 2
     2    1    3 1
     3    1    4 1
     4    1    8 1
     5    4   32 1
     6    5    6 2
     7    5    7 1
     8    5    8 1
     9    5   12 1
    10    9   10 2
    11    9   11 1
    12    9   12 1
    13    9   13 1
    14   13   14 1
    15   14   15 1
    16   14   33 1
    17   14   34 1
    18   15   16 1
    19   15   17 1
    20   15   35 1
    21   16   21 1
    22   17   18 1
    23   17   19 1
    24   17   36 1
    25   18   37 1
    26   19   20 1
    27   19   21 1
    28   19   38 1
    29   20   39 1
    30   21   22 1
    31   21   40 1
    32   22   23 ar
    33   22   31 ar
    34   23   24 ar
    35   23   41 1
    36   24   25 ar
    37   25   26 ar
    38   25   31 ar
    39   26   27 2
    40   26   28 ar
    41   27   42 1
    42   28   29 ar
    43   28   44 1
    44   29   30 ar
    45   29   43 1
    46   30   31 ar
@<TRIPOS>SUBSTRUCTURE
     1 ATP         1 GROUP 0 A     ****
@<TRIPOS>MOLECULE
[[[3,4-dihydroxy-5-(6-imino-1~{H}-purin-9-yl)tetrahydrofuran-2-yl]methoxy-oxido-phosphoryl]oxy-oxido-phosphoryl] hydrogen phosphate
   44    46     1     0     0
SMALL
USER_CHARGES

@<TRIPOS>ATOM
      1 PG         -4.9678    6.6719   -0.8287 P.3       1 ATP         1.5257
      2 O1G        -6.0359    6.9440    0.2069 O.co2     1 ATP        -0.8737
      3 O2G        -5.2923    6.6993   -2.3057 O.co2     1 ATP        -0.8737
      4 O3G        -3.7118    7.6787   -0.5551 O.3       1 ATP        -0.7971
      5 PB         -4.8232    3.7367   -0.5019 P.3       1 ATP         1.6824
      6 O1B        -5.8698    3.6034    0.5817 O.co2     1 ATP        -0.8925
      7 O2B        -5.1269    3.3600   -1.9349 O.co2     1 ATP        -0.8925
      8 O3B        -4.2325    5.2585   -0.4747 O.3       1 ATP        -0.8047
      9 PA         -1.9976    2.8867   -0.7222 P.3       1 ATP         1.5908
     10 O1A        -1.3784    4.2667   -0.6708 O.co2     1 ATP        -0.8932
     11 O2A        -2.1191    2.1418   -2.0338 O.co2     1 ATP        -0.8932
     12 O3A        -3.4752    2.9476   -0.0275 O.3       1 ATP        -0.8088
     13 O5'        -1.2434    1.9104    0.3515 O.3       1 ATP        -0.5646
     14 C5'        -0.8811    2.4285    1.6206 C.3       1 ATP         0.2204
     15 C4'        -0.1994    1.3333    2.4288 C.3       1 ATP         0.0965
     16 O4'        -1.1285    0.2356    2.5840 O.3       1 ATP        -0.3907
     17 C3'         1.0324    0.7610    1.7344 C.3       1 ATP         0.0763
     18 O3'         1.9175    0.2377    2.7247 O.3       1 ATP        -0.5884
     19 C2'         0.4468   -0.3802    0.9263 C.3       1 ATP         0.0784
     20 O2'         1.3993   -1.3703    0.5961 O.3       1 ATP        -0.6085
     21 C1'        -0.6159   -0.9100    1.8769 C.3       1 ATP         0.2186
     22 N9         -1.7127   -1.6108    1.2130 N.pl3     1 ATP        -0.1699
     23 C8         -2.8662   -1.0361    0.7388 C.ar      1 ATP         0.4438
     24 N7         -3.6774   -1.9166    0.1867 N.2       1 ATP        -0.6280
     25 C5         -3.0159   -3.1045    0.3122 C.ar      1 ATP         0.2109
     26 C6         -3.4377   -4.4169   -0.1199 C.ar      1 ATP         0.6180
     27 N6         -4.5720   -4.5691   -0.7080 N.2       1 ATP        -0.8319
     28 N1         -2.4600   -5.3463    0.2071 N.pl3     1 ATP        -0.8664
     29 C2         -1.2595   -5.0554    0.8515 C.ar      1 ATP         0.5952
     30 N3         -0.8555   -3.8803    1.2516 N.2       1 ATP        -0.5599
     31 C4         -1.7946   -2.9457    0.9448 C.ar      1 ATP         0.0076
     32 HOG3       -2.9324    7.6247   -1.1483 H         1 ATP         0.4101
     33 H5'1       -0.2033    3.2760    1.4769 H         1 ATP         0.0364
     34 H5'2       -1.7841    2.7762    2.1323 H         1 ATP         0.0364
     35 H4'         0.0403    1.7078    3.4343 H         1 ATP         0.0945
     36 H3'         1.5907    1.4859    1.1353 H         1 ATP         0.0703
     37 HO3'        2.6839   -0.1150    2.2479 H         1 ATP         0.4099
     38 H2'        -0.0017    0.0018    0.0005 H         1 ATP         0.0676
     39 HO2'        2.0953   -0.9375    0.0709 H         1 ATP         0.4291
     40 H1'        -0.1998   -1.6319    2.6178 H         1 ATP         0.0950
     41 H8         -3.0558    0.0252    0.8256 H         1 ATP         0.1135
     42 HN62       -4.7047   -5.5592   -0.9421 H         1 ATP         0.3588
     43 H2         -0.6372   -5.9505    1.0077 H         1 ATP         0.0302
     44 H44        -2.6338   -6.3155   -0.0469 H         1 ATP         0.4215
@<TRIPOS>BOND
     1    1    2 2
     2    1    3 1
     3    1    4 1
     4    1    8 1
     5    4   32 1
     6    5    6 2
     7    5    7 1
     8    5    8 1
     9    5   12 1
    10    9   10 2
    11    9   11 1
    12    9   12 1
    13    9   13 1
    14   13   14 1
    15   14   15 1
    16   14   33 1
    17   14   34 1
    18   15   16 1
    19   15   17 1
    20   15   35 1
    21   16   21 1
    22   17   18 1
    23   17   19 1
    24   17   36 1
    25   18   37 1
    26   19   20 1
    27   19   21 1
    28   19   38 1
    29   20   39 1
    30   21   22 1
    31   21   40 1
    32   22   23 ar
    33   22   31 ar
    34   23   24 ar
    35   23   41 1
    36   24   25 ar
    37   25   26 ar
    38   25   31 ar
    39   26   27 2
    40   26   28 ar
    41   27   42 1
    42   28   29 ar
    43   28   44 1
    44   29   30 ar
    45   29   43 1
    46   30   31 ar
@<TRIPOS>SUBSTRUCTURE
     1 ATP         1 GROUP 0 A     ****
@<TRIPOS>MOLECULE
[[[3,4-dihydroxy-5-(6-imino-1~{H}-purin-9-yl)tetrahydrofuran-2-yl]methoxy-oxido-phosphoryl]oxy-oxido-phosphoryl] hydrogen phosphate
   44    46     1     0     0
SMALL
USER_CHARGES

@<TRIPOS>ATOM
      1 PG          5.6037    2.0743   -4.8699 P.3       1 ATP         1.5257
      2 O1G         6.0503    3.1888   -5.7897 O.co2     1 ATP        -0.8737
      3 O2G         4.3494    2.2105   -4.0358 O.co2     1 ATP        -0.8737
      4 O3G         5.5020    0.6950   -5.7377 O.3       1 ATP        -0.7971
      5 PB          7.5743    2.5160   -2.7100 P.3       1 ATP         1.6824
      6 O1B         8.5587    1.6156   -1.9976 O.co2     1 ATP        -0.8925
      7 O2B         8.0006    3.8547   -3.2702 O.co2     1 ATP        -0.8925
      8 O3B         6.8453    1.6610   -3.8946 O.3       1 ATP        -0.8047
      9 PA          6.1593    3.5241   -0.3148 P.3       1 ATP         1.5908
     10 O1A         6.4223    4.9968   -0.5434 O.co2     1 ATP        -0.8932
     11 O2A         6.9473    2.7489    0.7186 O.co2     1 ATP        -0.8932
     12 O3A         6.2776    2.7414   -1.7442 O.3       1 ATP        -0.8088
     13 O5'         4.5670    3.2937   -0.0211 O.3       1 ATP        -0.5646
     14 C5'         4.0922    1.9801    0.2227 C.3       1 ATP         0.2204
     15 C4'         2.5944    2.0310    0.4653 C.3       1 ATP         0.0965
     16 O4'         1.9327    2.5740   -0.6889 O.3       1 ATP        -0.3907
     17 C3'         1.9685    0.6634    0.6767 C.3       1 ATP         0.0763
     18 O3'         2.1425    0.1975    1.9977 O.3       1 ATP        -0.5884
     19 C2'         0.5176    0.9128    0.3099 C.3       1 ATP         0.0784
     20 O2'        -0.2103    1.4454    1.4152 O.3       1 ATP        -0.6085
     21 C1'         0.6219    1.9765   -0.7844 C.3       1 ATP         0.2186
     22 N9          0.4237    1.4496   -2.1357 N.pl3     1 ATP        -0.1699
     23 C8          1.4069    0.9710   -2.9662 C.ar      1 ATP         0.4438
     24 N7          0.9316    0.5623   -4.1260 N.2       1 ATP        -0.6280
     25 C5         -0.4120    0.7884   -4.0344 C.ar      1 ATP         0.2109
     26 C6         -1.4353    0.5283   -5.0204 C.ar      1 ATP         0.6180
     27 N6         -1.1199    0.0176   -6.1586 N.2       1 ATP        -0.8319
     28 N1         -2.6704    0.9095   -4.5147 N.pl3     1 ATP        -0.8664
     29 C2         -2.8863    1.4571   -3.2520 C.ar      1 ATP         0.5952
     30 N3         -1.9805    1.7017   -2.3442 N.2       1 ATP        -0.5599
     31 C4         -0.7561    1.3381   -2.8112 C.ar      1 ATP         0.0076
     32 HOG3        5.2223   -0.1257   -5.2789 H         1 ATP         0.4101
     33 H5'1        4.3179    1.3548   -0.6470 H         1 ATP         0.0364
     34 H5'2        4.6083    1.5737    1.0983 H         1 ATP         0.0364
     35 H4'         2.3752    2.7029    1.3156 H         1 ATP         0.0945
     36 H3'         2.4336   -0.1217   -0.0015 H         1 ATP         0.0703
     37 HO3'        1.7160   -0.6716    2.0397 H         1 ATP         0.4099
     38 H2'         0.0316    0.0155   -0.0339 H         1 ATP         0.0676
     39 HO2'       -0.1608    0.7921    2.1351 H         1 ATP         0.4291
     40 H1'        -0.1474    2.7798   -0.6651 H         1 ATP         0.0950
     41 H8          2.4466    0.9468   -2.6694 H         1 ATP         0.1135
     42 HN62       -1.9661   -0.0965   -6.7275 H         1 ATP         0.3588
     43 H2         -3.9481    1.6825   -3.0660 H         1 ATP         0.0302
     44 H44        -3.4814    0.7753   -5.1133 H         1 ATP         0.4215
@<TRIPOS>BOND
     1    1    2 2
     2    1    3 1
     3    1    4 1
     4    1    8 1
     5    4   32 1
     6    5    6 2
     7    5    7 1
     8    5    8 1
     9    5   12 1
    10    9   10 2
    11    9   11 1
    12    9   12 1
    13    9   13 1
    14   13   14 1
    15   14   15 1
    16   14   33 1
    17   14   34 1
    18   15   16 1
    19   15   17 1
    20   15   35 1
    21   16   21 1
    22   17   18 1
    23   17   19 1
    24   17   36 1
    25   18   37 1
    26   19   20 1
    27   19   21 1
    28   19   38 1
    29   20   39 1
    30   21   22 1
    31   21   40 1
    32   22   23 ar
    33   22   31 ar
    34   23   24 ar
    35   23   41 1
    36   24   25 ar
    37   25   26 ar
    38   25   31 ar
    39   26   27 2
    40   26   28 ar
    41   27   42 1
    42   28   29 ar
    43   28   44 1
    44   29   30 ar
    45   29   43 1
    46   30   31 ar
@<TRIPOS>SUBSTRUCTURE
     1 ATP         1 GROUP 0 A     ****
@<TRIPOS>MOLECULE
[[[3,4-dihydroxy-5-(6-imino-1~{H}-purin-9-yl)tetrahydrofuran-2-yl]methoxy-oxido-phosphoryl]oxy-oxido-phosphoryl] hydrogen phosphate
   44    46     1     0     0
SMALL
USER_CHARGES

@<TRIPOS>ATOM
      1 PG         -4.4605    8.5184    2.5988 P.3       1 ATP         1.5257
      2 O1G        -3.5561    9.6432    3.0509 O.co2     1 ATP        -0.8737
      3 O2G        -5.7272    8.1873    3.3562 O.co2     1 ATP        -0.8737
      4 O3G        -4.8427    8.7590    1.0297 O.3       1 ATP        -0.7971
      5 PB         -2.2058    6.9006    1.5779 P.3       1 ATP         1.6824
      6 O1B        -2.5236    7.0206    0.1041 O.co2     1 ATP        -0.8925
      7 O2B        -1.0852    7.6996    2.2052 O.co2     1 ATP        -0.8925
      8 O3B        -3.5738    7.1586    2.4309 O.3       1 ATP        -0.8047
      9 PA         -2.9646    4.0418    1.6587 P.3       1 ATP         1.5908
     10 O1A        -3.0699    3.8298    0.1639 O.co2     1 ATP        -0.8932
     11 O2A        -4.2078    4.1934    2.5079 O.co2     1 ATP        -0.8932
     12 O3A        -1.9910    5.3235    1.9402 O.3       1 ATP        -0.8088
     13 O5'        -2.0401    2.8620    2.3128 O.3       1 ATP        -0.5646
     14 C5'        -0.8811    2.4285    1.6206 C.3       1 ATP         0.2204
     15 C4'        -0.1994    1.3333    2.4288 C.3       1 ATP         0.0965
     16 O4'        -1.1285    0.2356    2.5840 O.3       1 ATP        -0.3907
     17 C3'         1.0324    0.7610    1.7344 C.3       1 ATP         0.0763
     18 O3'         1.9175    0.2377    2.7247 O.3       1 ATP        -0.5884
     19 C2'         0.4468   -0.3802    0.9263 C.3       1 ATP         0.0784
     20 O2'         1.3993   -1.3703    0.5961 O.3       1 ATP        -0.6085
     21 C1'        -0.6159   -0.9100    1.8769 C.3       1 ATP         0.2186
     22 N9         -1.7127   -1.6108    1.2130 N.pl3     1 ATP        -0.1699
     23 C8         -1.7690   -2.9583    0.9549 C.ar      1 ATP         0.4438
     24 N7         -2.8827   -3.3076    0.3418 N.2       1 ATP        -0.6280
     25 C5         -3.5683   -2.1351    0.2017 C.ar      1 ATP         0.2109
     26 C6         -4.8617   -1.9185   -0.4044 C.ar      1 ATP         0.6180
     27 N6         -5.5166   -2.9094   -0.8993 N.2       1 ATP        -0.8319
     28 N1         -5.1837   -0.5701   -0.3344 N.pl3     1 ATP        -0.8664
     29 C2         -4.3821    0.4180    0.2330 C.ar      1 ATP         0.5952
     30 N3         -3.2117    0.2488    0.7860 N.2       1 ATP        -0.5599
     31 C4         -2.8672   -1.0657    0.7327 C.ar      1 ATP         0.0076
     32 HOG3       -4.1159    8.7897    0.3716 H         1 ATP         0.4101
     33 H5'1       -1.1767    2.0502    0.6368 H         1 ATP         0.0364
     34 H5'2       -0.2080    3.2814    1.4876 H         1 ATP         0.0364
     35 H4'         0.0403    1.7078    3.4343 H         1 ATP         0.0945
     36 H3'         1.5907    1.4859    1.1353 H         1 ATP         0.0703
     37 HO3'        2.1521    0.9800    3.3017 H         1 ATP         0.4099
     38 H2'        -0.0017    0.0018    0.0005 H         1 ATP         0.0676
     39 HO2'        0.9369   -2.0558    0.0825 H         1 ATP         0.4291
     40 H1'        -0.1998   -1.6319    2.6178 H         1 ATP         0.0950
     41 H8         -0.9697   -3.6300    1.2371 H         1 ATP         0.1135
     42 HN62       -6.4060   -2.5723   -1.2840 H         1 ATP         0.3588
     43 H2         -4.8409    1.4176    0.1757 H         1 ATP         0.0302
     44 H44        -6.0768   -0.2826   -0.7263 H         1 ATP         0.4215
@<TRIPOS>BOND
     1    1    2 2
     2    1    3 1
     3    1    4 1
     4    1    8 1
     5    4   32 1
     6    5    6 2
     7    5    7 1
     8    5    8 1
     9    5   12 1
    10    9   10 2
    11    9   11 1
    12    9   12 1
    13    9   13 1
    14   13   14 1
    15   14   15 1
    16   14   33 1
    17   14   34 1
    18   15   16 1
    19   15   17 1
    20   15   35 1
    21   16   21 1
    22   17   18 1
    23   17   19 1
    24   17   36 1
    25   18   37 1
    26   19   20 1
    27   19   21 1
    28   19   38 1
    29   20   39 1
    30   21   22 1
    31   21   40 1
    32   22   23 ar
    33   22   31 ar
    34   23   24 ar
    35   23   41 1
    36   24   25 ar
    37   25   26 ar
    38   25   31 ar
    39   26   27 2
    40   26   28 ar
    41   27   42 1
    42   28   29 ar
    43   28   44 1
    44   29   30 ar
    45   29   43 1
    46   30   31 ar
@<TRIPOS>SUBSTRUCTURE
     1 ATP         1 GROUP 0 A     ****
@<TRIPOS>MOLECULE
[[[3,4-dihydroxy-5-(6-imino-1~{H}-purin-9-yl)tetrahydrofuran-2-yl]methoxy-oxido-phosphoryl]oxy-oxido-phosphoryl] hydrogen phosphate
   44    46     1     0     0
SMALL
USER_CHARGES

@<TRIPOS>ATOM
      1 PG         -4.2981    5.1642   -0.7702 P.3       1 ATP         1.5257
      2 O1G        -4.5324    5.0430    0.7190 O.co2     1 ATP        -0.8737
      3 O2G        -4.3085    3.9416   -1.6607 O.co2     1 ATP        -0.8737
      4 O3G        -5.3528    6.2545   -1.3742 O.3       1 ATP        -0.7971
      5 PB         -1.3715    5.5786   -0.6887 P.3       1 ATP         1.6824
      6 O1B        -1.0874    4.2258   -1.3024 O.co2     1 ATP        -0.8925
      7 O2B        -0.4793    6.7679   -0.9668 O.co2     1 ATP        -0.8925
      8 O3B        -2.9148    5.9921   -1.0247 O.3       1 ATP        -0.8047
      9 PA         -0.3962    4.9846    2.0409 P.3       1 ATP         1.5908
     10 O1A        -1.0788    4.8233    3.3819 O.co2     1 ATP        -0.8932
     11 O2A         0.7937    5.9062    1.8845 O.co2     1 ATP        -0.8932
     12 O3A        -1.5174    5.3999    0.9273 O.3       1 ATP        -0.8088
     13 O5'         0.0178    3.5131    1.4595 O.3       1 ATP        -0.5646
     14 C5'        -0.8811    2.4285    1.6206 C.3       1 ATP         0.2204
     15 C4'        -0.1994    1.3333    2.4288 C.3       1 ATP         0.0965
     16 O4'        -1.1285    0.2356    2.5840 O.3       1 ATP        -0.3907
     17 C3'         1.0324    0.7610    1.7344 C.3       1 ATP         0.0763
     18 O3'         1.9175    0.2377    2.7247 O.3       1 ATP        -0.5884
     19 C2'         0.4468   -0.3802    0.9263 C.3       1 ATP         0.0784
     20 O2'         1.3993   -1.3703    0.5961 O.3       1 ATP        -0.6085
     21 C1'        -0.6159   -0.9100    1.8769 C.3       1 ATP         0.2186
     22 N9         -1.7127   -1.6108    1.2130 N.pl3     1 ATP        -0.1699
     23 C8         -1.7690   -2.9583    0.9549 C.ar      1 ATP         0.4438
     24 N7         -2.8827   -3.3076    0.3418 N.2       1 ATP        -0.6280
     25 C5         -3.5683   -2.1351    0.2017 C.ar      1 ATP         0.2109
     26 C6         -4.8617   -1.9185   -0.4044 C.ar      1 ATP         0.6180
     27 N6         -5.5166   -2.9094   -0.8993 N.2       1 ATP        -0.8319
     28 N1         -5.1837   -0.5701   -0.3344 N.pl3     1 ATP        -0.8664
     29 C2         -4.3821    0.4180    0.2330 C.ar      1 ATP         0.5952
     30 N3         -3.2117    0.2488    0.7860 N.2       1 ATP        -0.5599
     31 C4         -2.8672   -1.0657    0.7327 C.ar      1 ATP         0.0076
     32 HOG3       -5.3267    6.4461   -2.3359 H         1 ATP         0.4101
     33 H5'1       -1.7771    2.7849    2.1387 H         1 ATP         0.0364
     34 H5'2       -1.1654    2.0541    0.6320 H         1 ATP         0.0364
     35 H4'         0.0403    1.7078    3.4343 H         1 ATP         0.0945
     36 H3'         1.5907    1.4859    1.1353 H         1 ATP         0.0703
     37 HO3'        2.6839   -0.1150    2.2479 H         1 ATP         0.4099
     38 H2'        -0.0017    0.0018    0.0005 H         1 ATP         0.0676
     39 HO2'        2.0953   -0.9375    0.0709 H         1 ATP         0.4291
     40 H1'        -0.1998   -1.6319    2.6178 H         1 ATP         0.0950
     41 H8         -0.9697   -3.6300    1.2371 H         1 ATP         0.1135
     42 HN62       -6.4060   -2.5723   -1.2840 H         1 ATP         0.3588
     43 H2         -4.8409    1.4176    0.1757 H         1 ATP         0.0302
     44 H44        -6.0768   -0.2826   -0.7263 H         1 ATP         0.4215
@<TRIPOS>BOND
     1    1    2 2
     2    1    3 1
     3    1    4 1
     4    1    8 1
     5    4   32 1
     6    5    6 2
     7    5    7 1
     8    5    8 1
     9    5   12 1
    10    9   10 2
    11    9   11 1
    12    9   12 1
    13    9   13 1
    14   13   14 1
    15   14   15 1
    16   14   33 1
    17   14   34 1
    18   15   16 1
    19   15   17 1
    20   15   35 1
    21   16   21 1
    22   17   18 1
    23   17   19 1
    24   17   36 1
    25   18   37 1
    26   19   20 1
    27   19   21 1
    28   19   38 1
    29   20   39 1
    30   21   22 1
    31   21   40 1
    32   22   23 ar
    33   22   31 ar
    34   23   24 ar
    35   23   41 1
    36   24   25 ar
    37   25   26 ar
    38   25   31 ar
    39   26   27 2
    40   26   28 ar
    41   27   42 1
    42   28   29 ar
    43   28   44 1
    44   29   30 ar
    45   29   43 1
    46   30   31 ar
@<TRIPOS>SUBSTRUCTURE
     1 ATP         1 GROUP 0 A     ****
@<TRIPOS>MOLECULE
[[[3,4-dihydroxy-5-(6-imino-1~{H}-purin-9-yl)tetrahydrofuran-2-yl]methoxy-oxido-phosphoryl]oxy-oxido-phosphoryl] hydrogen phosphate
   44    46     1     0     0
SMALL
USER_CHARGES

@<TRIPOS>ATOM
      1 PG         -4.2981    5.1642   -0.7702 P.3       1 ATP         1.5257
      2 O1G        -4.5324    5.0430    0.7190 O.co2     1 ATP        -0.8737
      3 O2G        -4.3085    3.9416   -1.6607 O.co2     1 ATP        -0.8737
      4 O3G        -5.3528    6.2545   -1.3742 O.3       1 ATP        -0.7971
      5 PB         -1.3715    5.5786   -0.6887 P.3       1 ATP         1.6824
      6 O1B        -1.0874    4.2258   -1.3024 O.co2     1 ATP        -0.8925
      7 O2B        -0.4793    6.7679   -0.9668 O.co2     1 ATP        -0.8925
      8 O3B        -2.9148    5.9921   -1.0247 O.3       1 ATP        -0.8047
      9 PA         -0.3962    4.9846    2.0409 P.3       1 ATP         1.5908
     10 O1A        -1.0788    4.8233    3.3819 O.co2     1 ATP        -0.8932
     11 O2A         0.7937    5.9062    1.8845 O.co2     1 ATP        -0.8932
     12 O3A        -1.5174    5.3999    0.9273 O.3       1 ATP        -0.8088
     13 O5'         0.0178    3.5131    1.4595 O.3       1 ATP        -0.5646
     14 C5'        -0.8811    2.4285    1.6206 C.3       1 ATP         0.2204
     15 C4'        -0.1994    1.3333    2.4288 C.3       1 ATP         0.0965
     16 O4'        -1.1285    0.2356    2.5840 O.3       1 ATP        -0.3907
     17 C3'         1.0324    0.7610    1.7344 C.3       1 ATP         0.0763
     18 O3'         1.9175    0.2377    2.7247 O.3       1 ATP        -0.5884
     19 C2'         0.4468   -0.3802    0.9263 C.3       1 ATP         0.0784
     20 O2'         1.3993   -1.3703    0.5961 O.3       1 ATP        -0.6085
     21 C1'        -0.6159   -0.9100    1.8769 C.3       1 ATP         0.2186
     22 N9         -1.7127   -1.6108    1.2130 N.pl3     1 ATP        -0.1699
     23 C8         -2.8662   -1.0361    0.7388 C.ar      1 ATP         0.4438
     24 N7         -3.6774   -1.9166    0.1867 N.2       1 ATP        -0.6280
     25 C5         -3.0159   -3.1045    0.3122 C.ar      1 ATP         0.2109
     26 C6         -3.4377   -4.4169   -0.1199 C.ar      1 ATP         0.6180
     27 N6         -4.5720   -4.5691   -0.7080 N.2       1 ATP        -0.8319
     28 N1         -2.4600   -5.3463    0.2071 N.pl3     1 ATP        -0.8664
     29 C2         -1.2595   -5.0554    0.8515 C.ar      1 ATP         0.5952
     30 N3         -0.8555   -3.8803    1.2516 N.2       1 ATP        -0.5599
     31 C4         -1.7946   -2.9457    0.9448 C.ar      1 ATP         0.0076
     32 HOG3       -5.3267    6.4461   -2.3359 H         1 ATP         0.4101
     33 H5'1       -1.7771    2.7849    2.1387 H         1 ATP         0.0364
     34 H5'2       -1.1654    2.0541    0.6320 H         1 ATP         0.0364
     35 H4'         0.0403    1.7078    3.4343 H         1 ATP         0.0945
     36 H3'         1.5907    1.4859    1.1353 H         1 ATP         0.0703
     37 HO3'        2.1521    0.9800    3.3017 H         1 ATP         0.4099
     38 H2'        -0.0017    0.0018    0.0005 H         1 ATP         0.0676
     39 HO2'        2.0953   -0.9375    0.0709 H         1 ATP         0.4291
     40 H1'        -0.1998   -1.6319    2.6178 H         1 ATP         0.0950
     41 H8         -3.0558    0.0252    0.8256 H         1 ATP         0.1135
     42 HN62       -4.7047   -5.5592   -0.9421 H         1 ATP         0.3588
     43 H2         -0.6372   -5.9505    1.0077 H         1 ATP         0.0302
     44 H44        -2.6338   -6.3155   -0.0469 H         1 ATP         0.4215
@<TRIPOS>BOND
     1    1    2 2
     2    1    3 1
     3    1    4 1
     4    1    8 1
     5    4   32 1
     6    5    6 2
     7    5    7 1
     8    5    8 1
     9    5   12 1
    10    9   10 2
    11    9   11 1
    12    9   12 1
    13    9   13 1
    14   13   14 1
    15   14   15 1
    16   14   33 1
    17   14   34 1
    18   15   16 1
    19   15   17 1
    20   15   35 1
    21   16   21 1
    22   17   18 1
    23   17   19 1
    24   17   36 1
    25   18   37 1
    26   19   20 1
    27   19   21 1
    28   19   38 1
    29   20   39 1
    30   21   22 1
    31   21   40 1
    32   22   23 ar
    33   22   31 ar
    34   23   24 ar
    35   23   41 1
    36   24   25 ar
    37   25   26 ar
    38   25   31 ar
    39   26   27 2
    40   26   28 ar
    41   27   42 1
    42   28   29 ar
    43   28   44 1
    44   29   30 ar
    45   29   43 1
    46   30   31 ar
@<TRIPOS>SUBSTRUCTURE
     1 ATP         1 GROUP 0 A     ****
@<TRIPOS>MOLECULE
[[[3,4-dihydroxy-5-(6-imino-1~{H}-purin-9-yl)tetrahydrofuran-2-yl]methoxy-oxido-phosphoryl]oxy-oxido-phosphoryl] hydrogen phosphate
   44    46     1     0     0
SMALL
USER_CHARGES

@<TRIPOS>ATOM
      1 PG         -5.8981    6.3039    3.1181 P.3       1 ATP         1.5257
      2 O1G        -5.7654    7.7635    3.4913 O.co2     1 ATP        -0.8737
      3 O2G        -6.5671    5.3204    4.0524 O.co2     1 ATP        -0.8737
      4 O3G        -6.6213    6.2056    1.6576 O.3       1 ATP        -0.7971
      5 PB         -3.3505    6.2904    1.6171 P.3       1 ATP         1.6824
      6 O1B        -3.9350    6.1371    0.2306 O.co2     1 ATP        -0.8925
      7 O2B        -2.8244    7.6227    2.1025 O.co2     1 ATP        -0.8925
      8 O3B        -4.4288    5.7255    2.7051 O.3       1 ATP        -0.8047
      9 PA         -0.7385    5.0053    1.0867 P.3       1 ATP         1.5908
     10 O1A         0.1343    6.1787    1.4762 O.co2     1 ATP        -0.8932
     11 O2A        -0.9779    4.6690   -0.3691 O.co2     1 ATP        -0.8932
     12 O3A        -2.1887    5.1621    1.8228 O.3       1 ATP        -0.8088
     13 O5'        -0.2062    3.6557    1.8417 O.3       1 ATP        -0.5646
     14 C5'        -0.8811    2.4285    1.6206 C.3       1 ATP         0.2204
     15 C4'        -0.1994    1.3333    2.4288 C.3       1 ATP         0.0965
     16 O4'        -1.1285    0.2356    2.5840 O.3       1 ATP        -0.3907
     17 C3'         1.0324    0.7610    1.7344 C.3       1 ATP         0.0763
     18 O3'         1.9175    0.2377    2.7247 O.3       1 ATP        -0.5884
     19 C2'         0.4468   -0.3802    0.9263 C.3       1 ATP         0.0784
     20 O2'         1.3993   -1.3703    0.5961 O.3       1 ATP        -0.6085
     21 C1'        -0.6159   -0.9100    1.8769 C.3       1 ATP         0.2186
     22 N9         -1.7127   -1.6108    1.2130 N.pl3     1 ATP        -0.1699
     23 C8         -2.8662   -1.0361    0.7388 C.ar      1 ATP         0.4438
     24 N7         -3.6774   -1.9166    0.1867 N.2       1 ATP        -0.6280
     25 C5         -3.0159   -3.1045    0.3122 C.ar      1 ATP         0.2109
     26 C6         -3.4377   -4.4169   -0.1199 C.ar      1 ATP         0.6180
     27 N6         -4.5720   -4.5691   -0.7080 N.2       1 ATP        -0.8319
     28 N1         -2.4600   -5.3463    0.2071 N.pl3     1 ATP        -0.8664
     29 C2         -1.2595   -5.0554    0.8515 C.ar      1 ATP         0.5952
     30 N3         -0.8555   -3.8803    1.2516 N.2       1 ATP        -0.5599
     31 C4         -1.7946   -2.9457    0.9448 C.ar      1 ATP         0.0076
     32 HOG3       -6.7799    5.3168    1.2739 H         1 ATP         0.4101
     33 H5'1       -1.9256    2.5380    1.9293 H         1 ATP         0.0364
     34 H5'2       -0.8474    2.1930    0.5521 H         1 ATP         0.0364
     35 H4'         0.0403    1.7078    3.4343 H         1 ATP         0.0945
     36 H3'         1.5907    1.4859    1.1353 H         1 ATP         0.0703
     37 HO3'        2.6839   -0.1150    2.2479 H         1 ATP         0.4099
     38 H2'        -0.0017    0.0018    0.0005 H         1 ATP         0.0676
     39 HO2'        2.0953   -0.9375    0.0709 H         1 ATP         0.4291
     40 H1'        -0.1998   -1.6319    2.6178 H         1 ATP         0.0950
     41 H8         -3.0558    0.0252    0.8256 H         1 ATP         0.1135
     42 HN62       -4.7047   -5.5592   -0.9421 H         1 ATP         0.3588
     43 H2         -0.6372   -5.9505    1.0077 H         1 ATP         0.0302
     44 H44        -2.6338   -6.3155   -0.0469 H         1 ATP         0.4215
@<TRIPOS>BOND
     1    1    2 2
     2    1    3 1
     3    1    4 1
     4    1    8 1
     5    4   32 1
     6    5    6 2
     7    5    7 1
     8    5    8 1
     9    5   12 1
    10    9   10 2
    11    9   11 1
    12    9   12 1
    13    9   13 1
    14   13   14 1
    15   14   15 1
    16   14   33 1
    17   14   34 1
    18   15   16 1
    19   15   17 1
    20   15   35 1
    21   16   21 1
    22   17   18 1
    23   17   19 1
    24   17   36 1
    25   18   37 1
    26   19   20 1
    27   19   21 1
    28   19   38 1
    29   20   39 1
    30   21   22 1
    31   21   40 1
    32   22   23 ar
    33   22   31 ar
    34   23   24 ar
    35   23   41 1
    36   24   25 ar
    37   25   26 ar
    38   25   31 ar
    39   26   27 2
    40   26   28 ar
    41   27   42 1
    42   28   29 ar
    43   28   44 1
    44   29   30 ar
    45   29   43 1
    46   30   31 ar
@<TRIPOS>SUBSTRUCTURE
     1 ATP         1 GROUP 0 A     ****
@<TRIPOS>MOLECULE
[[[3,4-dihydroxy-5-(6-imino-1~{H}-purin-9-yl)tetrahydrofuran-2-yl]methoxy-oxido-phosphoryl]oxy-oxido-phosphoryl] hydrogen phosphate
   44    46     1     0     0
SMALL
USER_CHARGES

@<TRIPOS>ATOM
      1 PG         -3.4564    9.0090    1.5251 P.3       1 ATP         1.5257
      2 O1G        -4.2536    9.2628    0.2652 O.co2     1 ATP        -0.8737
      3 O2G        -2.3327    9.9352    1.9337 O.co2     1 ATP        -0.8737
      4 O3G        -4.4953    8.8706    2.7771 O.3       1 ATP        -0.7971
      5 PB         -1.7954    6.7817    0.5135 P.3       1 ATP         1.6824
      6 O1B        -2.3656    6.7255   -0.8862 O.co2     1 ATP        -0.8925
      7 O2B        -0.4425    7.4013    0.7839 O.co2     1 ATP        -0.8925
      8 O3B        -2.8958    7.4764    1.4994 O.3       1 ATP        -0.8047
      9 PA         -1.4709    4.7755    2.6641 P.3       1 ATP         1.5908
     10 O1A        -2.5003    5.3468    3.6150 O.co2     1 ATP        -0.8932
     11 O2A         0.0077    4.9865    2.9069 O.co2     1 ATP        -0.8932
     12 O3A        -1.8194    5.2782    1.1490 O.3       1 ATP        -0.8088
     13 O5'        -1.7336    3.1724    2.4750 O.3       1 ATP        -0.5646
     14 C5'        -0.8811    2.4285    1.6206 C.3       1 ATP         0.2204
     15 C4'        -0.1994    1.3333    2.4288 C.3       1 ATP         0.0965
     16 O4'        -1.1285    0.2356    2.5840 O.3       1 ATP        -0.3907
     17 C3'         1.0324    0.7610    1.7344 C.3       1 ATP         0.0763
     18 O3'         1.9175    0.2377    2.7247 O.3       1 ATP        -0.5884
     19 C2'         0.4468   -0.3802    0.9263 C.3       1 ATP         0.0784
     20 O2'         1.3993   -1.3703    0.5961 O.3       1 ATP        -0.6085
     21 C1'        -0.6159   -0.9100    1.8769 C.3       1 ATP         0.2186
     22 N9         -1.7127   -1.6108    1.2130 N.pl3     1 ATP        -0.1699
     23 C8         -2.8662   -1.0361    0.7388 C.ar      1 ATP         0.4438
     24 N7         -3.6774   -1.9166    0.1867 N.2       1 ATP        -0.6280
     25 C5         -3.0159   -3.1045    0.3122 C.ar      1 ATP         0.2109
     26 C6         -3.4377   -4.4169   -0.1199 C.ar      1 ATP         0.6180
     27 N6         -4.5720   -4.5691   -0.7080 N.2       1 ATP        -0.8319
     28 N1         -2.4600   -5.3463    0.2071 N.pl3     1 ATP        -0.8664
     29 C2         -1.2595   -5.0554    0.8515 C.ar      1 ATP         0.5952
     30 N3         -0.8555   -3.8803    1.2516 N.2       1 ATP        -0.5599
     31 C4         -1.7946   -2.9457    0.9448 C.ar      1 ATP         0.0076
     32 HOG3       -4.1290    8.7029    3.6715 H         1 ATP         0.4101
     33 H5'1       -1.4800    1.9927    0.8146 H         1 ATP         0.0364
     34 H5'2       -0.1367    3.1040    1.1872 H         1 ATP         0.0364
     35 H4'         0.0403    1.7078    3.4343 H         1 ATP         0.0945
     36 H3'         1.5907    1.4859    1.1353 H         1 ATP         0.0703
     37 HO3'        2.1521    0.9800    3.3017 H         1 ATP         0.4099
     38 H2'        -0.0017    0.0018    0.0005 H         1 ATP         0.0676
     39 HO2'        0.9369   -2.0558    0.0825 H         1 ATP         0.4291
     40 H1'        -0.1998   -1.6319    2.6178 H         1 ATP         0.0950
     41 H8         -3.0558    0.0252    0.8256 H         1 ATP         0.1135
     42 HN62       -4.7047   -5.5592   -0.9421 H         1 ATP         0.3588
     43 H2         -0.6372   -5.9505    1.0077 H         1 ATP         0.0302
     44 H44        -2.6338   -6.3155   -0.0469 H         1 ATP         0.4215
@<TRIPOS>BOND
     1    1    2 2
     2    1    3 1
     3    1    4 1
     4    1    8 1
     5    4   32 1
     6    5    6 2
     7    5    7 1
     8    5    8 1
     9    5   12 1
    10    9   10 2
    11    9   11 1
    12    9   12 1
    13    9   13 1
    14   13   14 1
    15   14   15 1
    16   14   33 1
    17   14   34 1
    18   15   16 1
    19   15   17 1
    20   15   35 1
    21   16   21 1
    22   17   18 1
    23   17   19 1
    24   17   36 1
    25   18   37 1
    26   19   20 1
    27   19   21 1
    28   19   38 1
    29   20   39 1
    30   21   22 1
    31   21   40 1
    32   22   23 ar
    33   22   31 ar
    34   23   24 ar
    35   23   41 1
    36   24   25 ar
    37   25   26 ar
    38   25   31 ar
    39   26   27 2
    40   26   28 ar
    41   27   42 1
    42   28   29 ar
    43   28   44 1
    44   29   30 ar
    45   29   43 1
    46   30   31 ar
@<TRIPOS>SUBSTRUCTURE
     1 ATP         1 GROUP 0 A     ****
@<TRIPOS>MOLECULE
[[[3,4-dihydroxy-5-(6-imino-1~{H}-purin-9-yl)tetrahydrofuran-2-yl]methoxy-oxido-phosphoryl]oxy-oxido-phosphoryl] hydrogen phosphate
   44    46     1     0     0
SMALL
USER_CHARGES

@<TRIPOS>ATOM
      1 PG         -4.2546    5.1153   -0.8322 P.3       1 ATP         1.5257
      2 O1G        -5.4908    5.2699    0.0253 O.co2     1 ATP        -0.8737
      3 O2G        -3.4538    3.8322   -0.8174 O.co2     1 ATP        -0.8737
      4 O3G        -4.6491    5.4623   -2.3781 O.3       1 ATP        -0.7971
      5 PB         -2.4175    6.7561    0.8036 P.3       1 ATP         1.6824
      6 O1B        -1.5018    7.9190    0.4922 O.co2     1 ATP        -0.8925
      7 O2B        -3.3804    6.8075    1.9688 O.co2     1 ATP        -0.8925
      8 O3B        -3.2498    6.3693   -0.5466 O.3       1 ATP        -0.8047
      9 PA         -0.3962    4.9846    2.0409 P.3       1 ATP         1.5908
     10 O1A        -1.0788    4.8233    3.3819 O.co2     1 ATP        -0.8932
     11 O2A         0.7937    5.9062    1.8845 O.co2     1 ATP        -0.8932
     12 O3A        -1.5174    5.3999    0.9273 O.3       1 ATP        -0.8088
     13 O5'         0.0178    3.5131    1.4595 O.3       1 ATP        -0.5646
     14 C5'        -0.8811    2.4285    1.6206 C.3       1 ATP         0.2204
     15 C4'        -0.1994    1.3333    2.4288 C.3       1 ATP         0.0965
     16 O4'        -1.1285    0.2356    2.5840 O.3       1 ATP        -0.3907
     17 C3'         1.0324    0.7610    1.7344 C.3       1 ATP         0.0763
     18 O3'         1.9175    0.2377    2.7247 O.3       1 ATP        -0.5884
     19 C2'         0.4468   -0.3802    0.9263 C.3       1 ATP         0.0784
     20 O2'         1.3993   -1.3703    0.5961 O.3       1 ATP        -0.6085
     21 C1'        -0.6159   -0.9100    1.8769 C.3       1 ATP         0.2186
     22 N9         -1.7127   -1.6108    1.2130 N.pl3     1 ATP        -0.1699
     23 C8         -1.7690   -2.9583    0.9549 C.ar      1 ATP         0.4438
     24 N7         -2.8827   -3.3076    0.3418 N.2       1 ATP        -0.6280
     25 C5         -3.5683   -2.1351    0.2017 C.ar      1 ATP         0.2109
     26 C6         -4.8617   -1.9185   -0.4044 C.ar      1 ATP         0.6180
     27 N6         -5.5166   -2.9094   -0.8993 N.2       1 ATP        -0.8319
     28 N1         -5.1837   -0.5701   -0.3344 N.pl3     1 ATP        -0.8664
     29 C2         -4.3821    0.4180    0.2330 C.ar      1 ATP         0.5952
     30 N3         -3.2117    0.2488    0.7860 N.2       1 ATP        -0.5599
     31 C4         -2.8672   -1.0657    0.7327 C.ar      1 ATP         0.0076
     32 HOG3       -3.9484    5.4072   -3.0624 H         1 ATP         0.4101
     33 H5'1       -1.7771    2.7849    2.1387 H         1 ATP         0.0364
     34 H5'2       -1.1654    2.0541    0.6320 H         1 ATP         0.0364
     35 H4'         0.0403    1.7078    3.4343 H         1 ATP         0.0945
     36 H3'         1.5907    1.4859    1.1353 H         1 ATP         0.0703
     37 HO3'        2.6839   -0.1150    2.2479 H         1 ATP         0.4099
     38 H2'        -0.0017    0.0018    0.0005 H         1 ATP         0.0676
     39 HO2'        0.9369   -2.0558    0.0825 H         1 ATP         0.4291
     40 H1'        -0.1998   -1.6319    2.6178 H         1 ATP         0.0950
     41 H8         -0.9697   -3.6300    1.2371 H         1 ATP         0.1135
     42 HN62       -6.4060   -2.5723   -1.2840 H         1 ATP         0.3588
     43 H2         -4.8409    1.4176    0.1757 H         1 ATP         0.0302
     44 H44        -6.0768   -0.2826   -0.7263 H         1 ATP         0.4215
@<TRIPOS>BOND
     1    1    2 2
     2    1    3 1
     3    1    4 1
     4    1    8 1
     5    4   32 1
     6    5    6 2
     7    5    7 1
     8    5    8 1
     9    5   12 1
    10    9   10 2
    11    9   11 1
    12    9   12 1
    13    9   13 1
    14   13   14 1
    15   14   15 1
    16   14   33 1
    17   14   34 1
    18   15   16 1
    19   15   17 1
    20   15   35 1
    21   16   21 1
    22   17   18 1
    23   17   19 1
    24   17   36 1
    25   18   37 1
    26   19   20 1
    27   19   21 1
    28   19   38 1
    29   20   39 1
    30   21   22 1
    31   21   40 1
    32   22   23 ar
    33   22   31 ar
    34   23   24 ar
    35   23   41 1
    36   24   25 ar
    37   25   26 ar
    38   25   31 ar
    39   26   27 2
    40   26   28 ar
    41   27   42 1
    42   28   29 ar
    43   28   44 1
    44   29   30 ar
    45   29   43 1
    46   30   31 ar
@<TRIPOS>SUBSTRUCTURE
     1 ATP         1 GROUP 0 A     ****
@<TRIPOS>MOLECULE
[[[3,4-dihydroxy-5-(6-imino-1~{H}-purin-9-yl)tetrahydrofuran-2-yl]methoxy-oxido-phosphoryl]oxy-oxido-phosphoryl] hydrogen phosphate
   44    46     1     0     0
SMALL
USER_CHARGES

@<TRIPOS>ATOM
      1 PG         -7.2845    4.6588   -0.3711 P.3       1 ATP         1.5257
      2 O1G        -7.0978    5.9200   -1.1848 O.co2     1 ATP        -0.8737
      3 O2G        -8.2000    4.6389    0.8327 O.co2     1 ATP        -0.8737
      4 O3G        -7.7263    3.4522   -1.3785 O.3       1 ATP        -0.7971
      5 PB         -4.5113    3.7495   -0.8468 P.3       1 ATP         1.6824
      6 O1B        -4.8362    2.5725   -1.7394 O.co2     1 ATP        -0.8925
      7 O2B        -3.9719    5.0414   -1.4193 O.co2     1 ATP        -0.8925
      8 O3B        -5.8198    4.0888    0.0688 O.3       1 ATP        -0.8047
      9 PA         -2.9646    4.0418    1.6587 P.3       1 ATP         1.5908
     10 O1A        -4.1353    4.3308    2.5732 O.co2     1 ATP        -0.8932
     11 O2A        -2.0512    5.1559    1.1958 O.co2     1 ATP        -0.8932
     12 O3A        -3.5115    3.2453    0.3410 O.3       1 ATP        -0.8088
     13 O5'        -2.0401    2.8620    2.3128 O.3       1 ATP        -0.5646
     14 C5'        -0.8811    2.4285    1.6206 C.3       1 ATP         0.2204
     15 C4'        -0.1994    1.3333    2.4288 C.3       1 ATP         0.0965
     16 O4'        -1.1285    0.2356    2.5840 O.3       1 ATP        -0.3907
     17 C3'         1.0324    0.7610    1.7344 C.3       1 ATP         0.0763
     18 O3'         1.9175    0.2377    2.7247 O.3       1 ATP        -0.5884
     19 C2'         0.4468   -0.3802    0.9263 C.3       1 ATP         0.0784
     20 O2'         1.3993   -1.3703    0.5961 O.3       1 ATP        -0.6085
     21 C1'        -0.6159   -0.9100    1.8769 C.3       1 ATP         0.2186
     22 N9         -1.7127   -1.6108    1.2130 N.pl3     1 ATP        -0.1699
     23 C8         -1.5982   -2.7455    0.4481 C.ar      1 ATP         0.4438
     24 N7         -2.7593   -3.1533   -0.0249 N.2       1 ATP        -0.6280
     25 C5         -3.6547   -2.2420    0.4573 C.ar      1 ATP         0.2109
     26 C6         -5.0842   -2.1942    0.2543 C.ar      1 ATP         0.6180
     27 N6         -5.6648   -3.0919   -0.4618 N.2       1 ATP        -0.8319
     28 N1         -5.6087   -1.0978    0.9248 N.pl3     1 ATP        -0.8664
     29 C2         -4.8689   -0.1873    1.6760 C.ar      1 ATP         0.5952
     30 N3         -3.5787   -0.2081    1.8745 N.2       1 ATP        -0.5599
     31 C4         -3.0344   -1.2737    1.2284 C.ar      1 ATP         0.0076
     32 HOG3       -7.8868    2.5621   -0.9987 H         1 ATP         0.4101
     33 H5'1       -1.1767    2.0502    0.6368 H         1 ATP         0.0364
     34 H5'2       -0.2080    3.2814    1.4876 H         1 ATP         0.0364
     35 H4'         0.0403    1.7078    3.4343 H         1 ATP         0.0945
     36 H3'         1.5907    1.4859    1.1353 H         1 ATP         0.0703
     37 HO3'        2.6839   -0.1150    2.2479 H         1 ATP         0.4099
     38 H2'        -0.0017    0.0018    0.0005 H         1 ATP         0.0676
     39 HO2'        2.0953   -0.9375    0.0709 H         1 ATP         0.4291
     40 H1'        -0.1998   -1.6319    2.6178 H         1 ATP         0.0950
     41 H8         -0.6448   -3.2254    0.2735 H         1 ATP         0.1135
     42 HN62       -6.6723   -2.9015   -0.4966 H         1 ATP         0.3588
     43 H2         -5.4961    0.6026    2.1183 H         1 ATP         0.0302
     44 H44        -6.6130   -0.9504    0.8642 H         1 ATP         0.4215
@<TRIPOS>BOND
     1    1    2 2
     2    1    3 1
     3    1    4 1
     4    1    8 1
     5    4   32 1
     6    5    6 2
     7    5    7 1
     8    5    8 1
     9    5   12 1
    10    9   10 2
    11    9   11 1
    12    9   12 1
    13    9   13 1
    14   13   14 1
    15   14   15 1
    16   14   33 1
    17   14   34 1
    18   15   16 1
    19   15   17 1
    20   15   35 1
    21   16   21 1
    22   17   18 1
    23   17   19 1
    24   17   36 1
    25   18   37 1
    26   19   20 1
    27   19   21 1
    28   19   38 1
    29   20   39 1
    30   21   22 1
    31   21   40 1
    32   22   23 ar
    33   22   31 ar
    34   23   24 ar
    35   23   41 1
    36   24   25 ar
    37   25   26 ar
    38   25   31 ar
    39   26   27 2
    40   26   28 ar
    41   27   42 1
    42   28   29 ar
    43   28   44 1
    44   29   30 ar
    45   29   43 1
    46   30   31 ar
@<TRIPOS>SUBSTRUCTURE
     1 ATP         1 GROUP 0 A     ****
@<TRIPOS>MOLECULE
[[[3,4-dihydroxy-5-(6-imino-1~{H}-purin-9-yl)tetrahydrofuran-2-yl]methoxy-oxido-phosphoryl]oxy-oxido-phosphoryl] hydrogen phosphate
   44    46     1     0     0
SMALL
USER_CHARGES

@<TRIPOS>ATOM
      1 PG         -5.1555    4.7528   -2.3962 P.3       1 ATP         1.5257
      2 O1G        -4.3938    5.0293   -3.6732 O.co2     1 ATP        -0.8737
      3 O2G        -6.2756    5.6642   -1.9464 O.co2     1 ATP        -0.8737
      4 O3G        -5.7228    3.2227   -2.4516 O.3       1 ATP        -0.7971
      5 PB         -3.0946    5.6738   -0.4862 P.3       1 ATP         1.6824
      6 O1B        -2.0463    6.0749   -1.4999 O.co2     1 ATP        -0.8925
      7 O2B        -3.9319    6.7117    0.2274 O.co2     1 ATP        -0.8925
      8 O3B        -4.0919    4.5772   -1.1707 O.3       1 ATP        -0.8047
      9 PA         -3.0798    3.8627    1.8536 P.3       1 ATP         1.5908
     10 O1A        -3.9736    2.7897    1.2703 O.co2     1 ATP        -0.8932
     11 O2A        -3.6162    4.8491    2.8679 O.co2     1 ATP        -0.8932
     12 O3A        -2.4007    4.7039    0.6285 O.3       1 ATP        -0.8088
     13 O5'        -1.7336    3.1724    2.4750 O.3       1 ATP        -0.5646
     14 C5'        -0.8811    2.4285    1.6206 C.3       1 ATP         0.2204
     15 C4'        -0.1994    1.3333    2.4288 C.3       1 ATP         0.0965
     16 O4'        -1.1285    0.2356    2.5840 O.3       1 ATP        -0.3907
     17 C3'         1.0324    0.7610    1.7344 C.3       1 ATP         0.0763
     18 O3'         1.9175    0.2377    2.7247 O.3       1 ATP        -0.5884
     19 C2'         0.4468   -0.3802    0.9263 C.3       1 ATP         0.0784
     20 O2'         1.3993   -1.3703    0.5961 O.3       1 ATP        -0.6085
     21 C1'        -0.6159   -0.9100    1.8769 C.3       1 ATP         0.2186
     22 N9         -1.7127   -1.6108    1.2130 N.pl3     1 ATP        -0.1699
     23 C8         -2.0868   -2.9137    1.4327 C.ar      1 ATP         0.4438
     24 N7         -3.1125   -3.2756    0.6878 N.2       1 ATP        -0.6280
     25 C5         -3.4079   -2.1580   -0.0391 C.ar      1 ATP         0.2109
     26 C6         -4.4483   -1.9775   -1.0249 C.ar      1 ATP         0.6180
     27 N6         -5.2418   -2.9492   -1.3113 N.2       1 ATP        -0.8319
     28 N1         -4.3937   -0.6823   -1.5211 N.pl3     1 ATP        -0.8664
     29 C2         -3.4770    0.2901   -1.1271 C.ar      1 ATP         0.5952
     30 N3         -2.5289    0.1525   -0.2402 N.2       1 ATP        -0.5599
     31 C4         -2.5564   -1.1096    0.2655 C.ar      1 ATP         0.0076
     32 HOG3       -6.2428    2.8897   -1.6894 H         1 ATP         0.4101
     33 H5'1       -1.4800    1.9927    0.8146 H         1 ATP         0.0364
     34 H5'2       -0.1367    3.1040    1.1872 H         1 ATP         0.0364
     35 H4'         0.0403    1.7078    3.4343 H         1 ATP         0.0945
     36 H3'         1.5907    1.4859    1.1353 H         1 ATP         0.0703
     37 HO3'        2.6839   -0.1150    2.2479 H         1 ATP         0.4099
     38 H2'        -0.0017    0.0018    0.0005 H         1 ATP         0.0676
     39 HO2'        2.0953   -0.9375    0.0709 H         1 ATP         0.4291
     40 H1'        -0.1998   -1.6319    2.6178 H         1 ATP         0.0950
     41 H8         -1.5740   -3.5449    2.1457 H         1 ATP         0.1135
     42 HN62       -5.9117   -2.6433   -2.0256 H         1 ATP         0.3588
     43 H2         -3.6225    1.2454   -1.6553 H         1 ATP         0.0302
     44 H44        -5.0794   -0.4231   -2.2258 H         1 ATP         0.4215
@<TRIPOS>BOND
     1    1    2 2
     2    1    3 1
     3    1    4 1
     4    1    8 1
     5    4   32 1
     6    5    6 2
     7    5    7 1
     8    5    8 1
     9    5   12 1
    10    9   10 2
    11    9   11 1
    12    9   12 1
    13    9   13 1
    14   13   14 1
    15   14   15 1
    16   14   33 1
    17   14   34 1
    18   15   16 1
    19   15   17 1
    20   15   35 1
    21   16   21 1
    22   17   18 1
    23   17   19 1
    24   17   36 1
    25   18   37 1
    26   19   20 1
    27   19   21 1
    28   19   38 1
    29   20   39 1
    30   21   22 1
    31   21   40 1
    32   22   23 ar
    33   22   31 ar
    34   23   24 ar
    35   23   41 1
    36   24   25 ar
    37   25   26 ar
    38   25   31 ar
    39   26   27 2
    40   26   28 ar
    41   27   42 1
    42   28   29 ar
    43   28   44 1
    44   29   30 ar
    45   29   43 1
    46   30   31 ar
@<TRIPOS>SUBSTRUCTURE
     1 ATP         1 GROUP 0 A     ****
@<TRIPOS>MOLECULE
[[[3,4-dihydroxy-5-(6-imino-1~{H}-purin-9-yl)tetrahydrofuran-2-yl]methoxy-oxido-phosphoryl]oxy-oxido-phosphoryl] hydrogen phosphate
   44    46     1     0     0
SMALL
USER_CHARGES

@<TRIPOS>ATOM
      1 PG          0.9579    8.7657    0.8909 P.3       1 ATP         1.5257
      2 O1G         2.4421    8.5312    1.0634 O.co2     1 ATP        -0.8737
      3 O2G         0.2705    9.9284    1.5716 O.co2     1 ATP        -0.8737
      4 O3G         0.6251    8.8297   -0.7063 O.3       1 ATP        -0.7971
      5 PB         -1.4278    7.0312    1.0987 P.3       1 ATP         1.6824
      6 O1B        -2.2170    7.8897    2.0620 O.co2     1 ATP        -0.8925
      7 O2B        -1.7722    6.9863   -0.3733 O.co2     1 ATP        -0.8925
      8 O3B         0.1570    7.3910    1.2548 O.3       1 ATP        -0.8047
      9 PA         -2.5926    4.4187    1.8556 P.3       1 ATP         1.5908
     10 O1A        -3.1164    4.0395    0.4873 O.co2     1 ATP        -0.8932
     11 O2A        -3.5302    4.9262    2.9294 O.co2     1 ATP        -0.8932
     12 O3A        -1.3848    5.5039    1.6734 O.3       1 ATP        -0.8088
     13 O5'        -1.7336    3.1724    2.4750 O.3       1 ATP        -0.5646
     14 C5'        -0.8811    2.4285    1.6206 C.3       1 ATP         0.2204
     15 C4'        -0.1994    1.3333    2.4288 C.3       1 ATP         0.0965
     16 O4'        -1.1285    0.2356    2.5840 O.3       1 ATP        -0.3907
     17 C3'         1.0324    0.7610    1.7344 C.3       1 ATP         0.0763
     18 O3'         1.9175    0.2377    2.7247 O.3       1 ATP        -0.5884
     19 C2'         0.4468   -0.3802    0.9263 C.3       1 ATP         0.0784
     20 O2'         1.3993   -1.3703    0.5961 O.3       1 ATP        -0.6085
     21 C1'        -0.6159   -0.9100    1.8769 C.3       1 ATP         0.2186
     22 N9         -1.7127   -1.6108    1.2130 N.pl3     1 ATP        -0.1699
     23 C8         -1.7690   -2.9583    0.9549 C.ar      1 ATP         0.4438
     24 N7         -2.8827   -3.3076    0.3418 N.2       1 ATP        -0.6280
     25 C5         -3.5683   -2.1351    0.2017 C.ar      1 ATP         0.2109
     26 C6         -4.8617   -1.9185   -0.4044 C.ar      1 ATP         0.6180
     27 N6         -5.5166   -2.9094   -0.8993 N.2       1 ATP        -0.8319
     28 N1         -5.1837   -0.5701   -0.3344 N.pl3     1 ATP        -0.8664
     29 C2         -4.3821    0.4180    0.2330 C.ar      1 ATP         0.5952
     30 N3         -3.2117    0.2488    0.7860 N.2       1 ATP        -0.5599
     31 C4         -2.8672   -1.0657    0.7327 C.ar      1 ATP         0.0076
     32 HOG3       -0.3040    8.9778   -0.9841 H         1 ATP         0.4101
     33 H5'1       -1.4800    1.9927    0.8146 H         1 ATP         0.0364
     34 H5'2       -0.1367    3.1040    1.1872 H         1 ATP         0.0364
     35 H4'         0.0403    1.7078    3.4343 H         1 ATP         0.0945
     36 H3'         1.5907    1.4859    1.1353 H         1 ATP         0.0703
     37 HO3'        2.6839   -0.1150    2.2479 H         1 ATP         0.4099
     38 H2'        -0.0017    0.0018    0.0005 H         1 ATP         0.0676
     39 HO2'        2.0953   -0.9375    0.0709 H         1 ATP         0.4291
     40 H1'        -0.1998   -1.6319    2.6178 H         1 ATP         0.0950
     41 H8         -0.9697   -3.6300    1.2371 H         1 ATP         0.1135
     42 HN62       -6.4060   -2.5723   -1.2840 H         1 ATP         0.3588
     43 H2         -4.8409    1.4176    0.1757 H         1 ATP         0.0302
     44 H44        -6.0768   -0.2826   -0.7263 H         1 ATP         0.4215
@<TRIPOS>BOND
     1    1    2 2
     2    1    3 1
     3    1    4 1
     4    1    8 1
     5    4   32 1
     6    5    6 2
     7    5    7 1
     8    5    8 1
     9    5   12 1
    10    9   10 2
    11    9   11 1
    12    9   12 1
    13    9   13 1
    14   13   14 1
    15   14   15 1
    16   14   33 1
    17   14   34 1
    18   15   16 1
    19   15   17 1
    20   15   35 1
    21   16   21 1
    22   17   18 1
    23   17   19 1
    24   17   36 1
    25   18   37 1
    26   19   20 1
    27   19   21 1
    28   19   38 1
    29   20   39 1
    30   21   22 1
    31   21   40 1
    32   22   23 ar
    33   22   31 ar
    34   23   24 ar
    35   23   41 1
    36   24   25 ar
    37   25   26 ar
    38   25   31 ar
    39   26   27 2
    40   26   28 ar
    41   27   42 1
    42   28   29 ar
    43   28   44 1
    44   29   30 ar
    45   29   43 1
    46   30   31 ar
@<TRIPOS>SUBSTRUCTURE
     1 ATP         1 GROUP 0 A     ****
@<TRIPOS>MOLECULE
[[[3,4-dihydroxy-5-(6-imino-1~{H}-purin-9-yl)tetrahydrofuran-2-yl]methoxy-oxido-phosphoryl]oxy-oxido-phosphoryl] hydrogen phosphate
   44    46     1     0     0
SMALL
USER_CHARGES

@<TRIPOS>ATOM
      1 PG          0.1813    3.4785    6.8690 P.3       1 ATP         1.5257
      2 O1G        -0.1630    2.2982    5.9882 O.co2     1 ATP        -0.8737
      3 O2G        -0.7055    3.8656    8.0315 O.co2     1 ATP        -0.8737
      4 O3G         1.7057    3.2863    7.4213 O.3       1 ATP        -0.7971
      5 PB         -0.6341    5.6263    5.0073 P.3       1 ATP         1.6824
      6 O1B        -1.8155    6.0233    5.8643 O.co2     1 ATP        -0.8925
      7 O2B         0.1304    6.6537    4.2028 O.co2     1 ATP        -0.8925
      8 O3B         0.4233    4.7903    5.9286 O.3       1 ATP        -0.8047
      9 PA         -2.1561    4.4278    2.7707 P.3       1 ATP         1.5908
     10 O1A        -1.6129    5.3161    1.6725 O.co2     1 ATP        -0.8932
     11 O2A        -3.5422    4.6538    3.3340 O.co2     1 ATP        -0.8932
     12 O3A        -1.0930    4.4169    4.0115 O.3       1 ATP        -0.8088
     13 O5'        -2.0401    2.8620    2.3128 O.3       1 ATP        -0.5646
     14 C5'        -0.8811    2.4285    1.6206 C.3       1 ATP         0.2204
     15 C4'        -0.1994    1.3333    2.4288 C.3       1 ATP         0.0965
     16 O4'        -1.1285    0.2356    2.5840 O.3       1 ATP        -0.3907
     17 C3'         1.0324    0.7610    1.7344 C.3       1 ATP         0.0763
     18 O3'         1.9175    0.2377    2.7247 O.3       1 ATP        -0.5884
     19 C2'         0.4468   -0.3802    0.9263 C.3       1 ATP         0.0784
     20 O2'         1.3993   -1.3703    0.5961 O.3       1 ATP        -0.6085
     21 C1'        -0.6159   -0.9100    1.8769 C.3       1 ATP         0.2186
     22 N9         -1.7127   -1.6108    1.2130 N.pl3     1 ATP        -0.1699
     23 C8         -2.5485   -1.0808    0.2609 C.ar      1 ATP         0.4438
     24 N7         -3.4476   -1.9486   -0.1593 N.2       1 ATP        -0.6280
     25 C5         -3.1762   -3.0816    0.5530 C.ar      1 ATP         0.2109
     26 C6         -3.8510   -4.3579    0.5006 C.ar      1 ATP         0.6180
     27 N6         -4.8468   -4.5293   -0.2961 N.2       1 ATP        -0.8319
     28 N1         -3.2499   -5.2342    1.3937 N.pl3     1 ATP        -0.8664
     29 C2         -2.1646   -4.9275    2.2116 C.ar      1 ATP         0.5952
     30 N3         -1.5382   -3.7840    2.2778 N.2       1 ATP        -0.5599
     31 C4         -2.1054   -2.9018    1.4120 C.ar      1 ATP         0.0076
     32 HOG3        2.0789    3.9754    8.0113 H         1 ATP         0.4101
     33 H5'1       -1.1767    2.0502    0.6368 H         1 ATP         0.0364
     34 H5'2       -0.2080    3.2814    1.4876 H         1 ATP         0.0364
     35 H4'         0.0403    1.7078    3.4343 H         1 ATP         0.0945
     36 H3'         1.5907    1.4859    1.1353 H         1 ATP         0.0703
     37 HO3'        2.1521    0.9800    3.3017 H         1 ATP         0.4099
     38 H2'        -0.0017    0.0018    0.0005 H         1 ATP         0.0676
     39 HO2'        2.0953   -0.9375    0.0709 H         1 ATP         0.4291
     40 H1'        -0.1998   -1.6319    2.6178 H         1 ATP         0.0950
     41 H8         -2.4515   -0.0599   -0.0829 H         1 ATP         0.1135
     42 HN62       -5.1990   -5.4882   -0.2005 H         1 ATP         0.3588
     43 H2         -1.8555   -5.7783    2.8388 H         1 ATP         0.0302
     44 H44        -3.6312   -6.1750    1.4526 H         1 ATP         0.4215
@<TRIPOS>BOND
     1    1    2 2
     2    1    3 1
     3    1    4 1
     4    1    8 1
     5    4   32 1
     6    5    6 2
     7    5    7 1
     8    5    8 1
     9    5   12 1
    10    9   10 2
    11    9   11 1
    12    9   12 1
    13    9   13 1
    14   13   14 1
    15   14   15 1
    16   14   33 1
    17   14   34 1
    18   15   16 1
    19   15   17 1
    20   15   35 1
    21   16   21 1
    22   17   18 1
    23   17   19 1
    24   17   36 1
    25   18   37 1
    26   19   20 1
    27   19   21 1
    28   19   38 1
    29   20   39 1
    30   21   22 1
    31   21   40 1
    32   22   23 ar
    33   22   31 ar
    34   23   24 ar
    35   23   41 1
    36   24   25 ar
    37   25   26 ar
    38   25   31 ar
    39   26   27 2
    40   26   28 ar
    41   27   42 1
    42   28   29 ar
    43   28   44 1
    44   29   30 ar
    45   29   43 1
    46   30   31 ar
@<TRIPOS>SUBSTRUCTURE
     1 ATP         1 GROUP 0 A     ****
@<TRIPOS>MOLECULE
[[[3,4-dihydroxy-5-(6-imino-1~{H}-purin-9-yl)tetrahydrofuran-2-yl]methoxy-oxido-phosphoryl]oxy-oxido-phosphoryl] hydrogen phosphate
   44    46     1     0     0
SMALL
USER_CHARGES

@<TRIPOS>ATOM
      1 PG         -3.8386    6.7794    4.7787 P.3       1 ATP         1.5257
      2 O1G        -3.3385    8.1767    5.0700 O.co2     1 ATP        -0.8737
      3 O2G        -3.8090    5.7055    5.8434 O.co2     1 ATP        -0.8737
      4 O3G        -5.3581    6.8844    4.1905 O.3       1 ATP        -0.7971
      5 PB         -1.5242    5.8412    3.1954 P.3       1 ATP         1.6824
      6 O1B        -0.7051    7.1108    3.2653 O.co2     1 ATP        -0.8925
      7 O2B        -1.1766    4.6371    4.0420 O.co2     1 ATP        -0.8925
      8 O3B        -3.0941    6.2171    3.4395 O.3       1 ATP        -0.8047
      9 PA         -0.4665    4.8322    0.6228 P.3       1 ATP         1.5908
     10 O1A         0.6558    5.8467    0.5864 O.co2     1 ATP        -0.8932
     11 O2A        -1.1281    4.3644   -0.6552 O.co2     1 ATP        -0.8932
     12 O3A        -1.6297    5.3718    1.6355 O.3       1 ATP        -0.8088
     13 O5'         0.0178    3.5131    1.4595 O.3       1 ATP        -0.5646
     14 C5'        -0.8811    2.4285    1.6206 C.3       1 ATP         0.2204
     15 C4'        -0.1994    1.3333    2.4288 C.3       1 ATP         0.0965
     16 O4'        -1.1285    0.2356    2.5840 O.3       1 ATP        -0.3907
     17 C3'         1.0324    0.7610    1.7344 C.3       1 ATP         0.0763
     18 O3'         1.9175    0.2377    2.7247 O.3       1 ATP        -0.5884
     19 C2'         0.4468   -0.3802    0.9263 C.3       1 ATP         0.0784
     20 O2'         1.3993   -1.3703    0.5961 O.3       1 ATP        -0.6085
     21 C1'        -0.6159   -0.9100    1.8769 C.3       1 ATP         0.2186
     22 N9         -1.7127   -1.6108    1.2130 N.pl3     1 ATP        -0.1699
     23 C8         -1.7690   -2.9583    0.9549 C.ar      1 ATP         0.4438
     24 N7         -2.8827   -3.3076    0.3418 N.2       1 ATP        -0.6280
     25 C5         -3.5683   -2.1351    0.2017 C.ar      1 ATP         0.2109
     26 C6         -4.8617   -1.9185   -0.4044 C.ar      1 ATP         0.6180
     27 N6         -5.5166   -2.9094   -0.8993 N.2       1 ATP        -0.8319
     28 N1         -5.1837   -0.5701   -0.3344 N.pl3     1 ATP        -0.8664
     29 C2         -4.3821    0.4180    0.2330 C.ar      1 ATP         0.5952
     30 N3         -3.2117    0.2488    0.7860 N.2       1 ATP        -0.5599
     31 C4         -2.8672   -1.0657    0.7327 C.ar      1 ATP         0.0076
     32 HOG3       -5.8245    6.0553    3.9512 H         1 ATP         0.4101
     33 H5'1       -1.7771    2.7849    2.1387 H         1 ATP         0.0364
     34 H5'2       -1.1654    2.0541    0.6320 H         1 ATP         0.0364
     35 H4'         0.0403    1.7078    3.4343 H         1 ATP         0.0945
     36 H3'         1.5907    1.4859    1.1353 H         1 ATP         0.0703
     37 HO3'        2.1521    0.9800    3.3017 H         1 ATP         0.4099
     38 H2'        -0.0017    0.0018    0.0005 H         1 ATP         0.0676
     39 HO2'        1.7495   -1.7243    1.4324 H         1 ATP         0.4291
     40 H1'        -0.1998   -1.6319    2.6178 H         1 ATP         0.0950
     41 H8         -0.9697   -3.6300    1.2371 H         1 ATP         0.1135
     42 HN62       -6.4060   -2.5723   -1.2840 H         1 ATP         0.3588
     43 H2         -4.8409    1.4176    0.1757 H         1 ATP         0.0302
     44 H44        -6.0768   -0.2826   -0.7263 H         1 ATP         0.4215
@<TRIPOS>BOND
     1    1    2 2
     2    1    3 1
     3    1    4 1
     4    1    8 1
     5    4   32 1
     6    5    6 2
     7    5    7 1
     8    5    8 1
     9    5   12 1
    10    9   10 2
    11    9   11 1
    12    9   12 1
    13    9   13 1
    14   13   14 1
    15   14   15 1
    16   14   33 1
    17   14   34 1
    18   15   16 1
    19   15   17 1
    20   15   35 1
    21   16   21 1
    22   17   18 1
    23   17   19 1
    24   17   36 1
    25   18   37 1
    26   19   20 1
    27   19   21 1
    28   19   38 1
    29   20   39 1
    30   21   22 1
    31   21   40 1
    32   22   23 ar
    33   22   31 ar
    34   23   24 ar
    35   23   41 1
    36   24   25 ar
    37   25   26 ar
    38   25   31 ar
    39   26   27 2
    40   26   28 ar
    41   27   42 1
    42   28   29 ar
    43   28   44 1
    44   29   30 ar
    45   29   43 1
    46   30   31 ar
@<TRIPOS>SUBSTRUCTURE
     1 ATP         1 GROUP 0 A     ****
@<TRIPOS>MOLECULE
[[[3,4-dihydroxy-5-(6-imino-1~{H}-purin-9-yl)tetrahydrofuran-2-yl]methoxy-oxido-phosphoryl]oxy-oxido-phosphoryl] hydrogen phosphate
   44    46     1     0     0
SMALL
USER_CHARGES

@<TRIPOS>ATOM
      1 PG         -4.5043    5.9815   -1.6270 P.3       1 ATP         1.5257
      2 O1G        -5.3794    7.1172   -1.1452 O.co2     1 ATP        -0.8737
      3 O2G        -5.0125    4.5570   -1.6322 O.co2     1 ATP        -0.8737
      4 O3G        -3.9616    6.3438   -3.1237 O.3       1 ATP        -0.7971
      5 PB         -2.7577    5.7778    0.7503 P.3       1 ATP         1.6824
      6 O1B        -1.2577    5.7777    0.9442 O.co2     1 ATP        -0.8925
      7 O2B        -3.6547    6.6702    1.5789 O.co2     1 ATP        -0.8925
      8 O3B        -3.0811    6.0325   -0.8296 O.3       1 ATP        -0.8047
      9 PA         -3.3347    3.2338    2.1468 P.3       1 ATP         1.5908
     10 O1A        -3.8074    1.8725    1.6847 O.co2     1 ATP        -0.8932
     11 O2A        -4.0244    3.9450    3.2906 O.co2     1 ATP        -0.8932
     12 O3A        -3.2997    4.2420    0.8615 O.3       1 ATP        -0.8088
     13 O5'        -1.7336    3.1724    2.4750 O.3       1 ATP        -0.5646
     14 C5'        -0.8811    2.4285    1.6206 C.3       1 ATP         0.2204
     15 C4'        -0.1994    1.3333    2.4288 C.3       1 ATP         0.0965
     16 O4'        -1.1285    0.2356    2.5840 O.3       1 ATP        -0.3907
     17 C3'         1.0324    0.7610    1.7344 C.3       1 ATP         0.0763
     18 O3'         1.9175    0.2377    2.7247 O.3       1 ATP        -0.5884
     19 C2'         0.4468   -0.3802    0.9263 C.3       1 ATP         0.0784
     20 O2'         1.3993   -1.3703    0.5961 O.3       1 ATP        -0.6085
     21 C1'        -0.6159   -0.9100    1.8769 C.3       1 ATP         0.2186
     22 N9         -1.7127   -1.6108    1.2130 N.pl3     1 ATP        -0.1699
     23 C8         -2.5485   -1.0808    0.2609 C.ar      1 ATP         0.4438
     24 N7         -3.4476   -1.9486   -0.1593 N.2       1 ATP        -0.6280
     25 C5         -3.1762   -3.0816    0.5530 C.ar      1 ATP         0.2109
     26 C6         -3.8510   -4.3579    0.5006 C.ar      1 ATP         0.6180
     27 N6         -4.8468   -4.5293   -0.2961 N.2       1 ATP        -0.8319
     28 N1         -3.2499   -5.2342    1.3937 N.pl3     1 ATP        -0.8664
     29 C2         -2.1646   -4.9275    2.2116 C.ar      1 ATP         0.5952
     30 N3         -1.5382   -3.7840    2.2778 N.2       1 ATP        -0.5599
     31 C4         -2.1054   -2.9018    1.4120 C.ar      1 ATP         0.0076
     32 HOG3       -3.3761    5.7001   -3.5765 H         1 ATP         0.4101
     33 H5'1       -1.4800    1.9927    0.8146 H         1 ATP         0.0364
     34 H5'2       -0.1367    3.1040    1.1872 H         1 ATP         0.0364
     35 H4'         0.0403    1.7078    3.4343 H         1 ATP         0.0945
     36 H3'         1.5907    1.4859    1.1353 H         1 ATP         0.0703
     37 HO3'        2.6839   -0.1150    2.2479 H         1 ATP         0.4099
     38 H2'        -0.0017    0.0018    0.0005 H         1 ATP         0.0676
     39 HO2'        2.0953   -0.9375    0.0709 H         1 ATP         0.4291
     40 H1'        -0.1998   -1.6319    2.6178 H         1 ATP         0.0950
     41 H8         -2.4515   -0.0599   -0.0829 H         1 ATP         0.1135
     42 HN62       -5.1990   -5.4882   -0.2005 H         1 ATP         0.3588
     43 H2         -1.8555   -5.7783    2.8388 H         1 ATP         0.0302
     44 H44        -3.6312   -6.1750    1.4526 H         1 ATP         0.4215
@<TRIPOS>BOND
     1    1    2 2
     2    1    3 1
     3    1    4 1
     4    1    8 1
     5    4   32 1
     6    5    6 2
     7    5    7 1
     8    5    8 1
     9    5   12 1
    10    9   10 2
    11    9   11 1
    12    9   12 1
    13    9   13 1
    14   13   14 1
    15   14   15 1
    16   14   33 1
    17   14   34 1
    18   15   16 1
    19   15   17 1
    20   15   35 1
    21   16   21 1
    22   17   18 1
    23   17   19 1
    24   17   36 1
    25   18   37 1
    26   19   20 1
    27   19   21 1
    28   19   38 1
    29   20   39 1
    30   21   22 1
    31   21   40 1
    32   22   23 ar
    33   22   31 ar
    34   23   24 ar
    35   23   41 1
    36   24   25 ar
    37   25   26 ar
    38   25   31 ar
    39   26   27 2
    40   26   28 ar
    41   27   42 1
    42   28   29 ar
    43   28   44 1
    44   29   30 ar
    45   29   43 1
    46   30   31 ar
@<TRIPOS>SUBSTRUCTURE
     1 ATP         1 GROUP 0 A     ****
@<TRIPOS>MOLECULE
[[[3,4-dihydroxy-5-(6-imino-1~{H}-purin-9-yl)tetrahydrofuran-2-yl]methoxy-oxido-phosphoryl]oxy-oxido-phosphoryl] hydrogen phosphate
   44    46     1     0     0
SMALL
USER_CHARGES

@<TRIPOS>ATOM
      1 PG         -3.4903    7.0218    0.2530 P.3       1 ATP         1.5257
      2 O1G        -2.9251    5.7881   -0.4149 O.co2     1 ATP        -0.8737
      3 O2G        -2.9976    8.4023   -0.1199 O.co2     1 ATP        -0.8737
      4 O3G        -5.1159    6.9936    0.1038 O.3       1 ATP        -0.7971
      5 PB         -2.0719    6.7716    2.8355 P.3       1 ATP         1.6824
      6 O1B        -1.2041    7.9796    2.5614 O.co2     1 ATP        -0.8925
      7 O2B        -2.5170    6.4293    4.2399 O.co2     1 ATP        -0.8925
      8 O3B        -3.3881    6.8432    1.8721 O.3       1 ATP        -0.8047
      9 PA          0.0330    4.7083    2.5757 P.3       1 ATP         1.5908
     10 O1A        -0.1146    4.1098    3.9578 O.co2     1 ATP        -0.8932
     11 O2A         1.1815    5.6399    2.2548 O.co2     1 ATP        -0.8932
     12 O3A        -1.3630    5.4574    2.1758 O.3       1 ATP        -0.8088
     13 O5'         0.0178    3.5131    1.4595 O.3       1 ATP        -0.5646
     14 C5'        -0.8811    2.4285    1.6206 C.3       1 ATP         0.2204
     15 C4'        -0.1994    1.3333    2.4288 C.3       1 ATP         0.0965
     16 O4'        -1.1285    0.2356    2.5840 O.3       1 ATP        -0.3907
     17 C3'         1.0324    0.7610    1.7344 C.3       1 ATP         0.0763
     18 O3'         1.9175    0.2377    2.7247 O.3       1 ATP        -0.5884
     19 C2'         0.4468   -0.3802    0.9263 C.3       1 ATP         0.0784
     20 O2'         1.3993   -1.3703    0.5961 O.3       1 ATP        -0.6085
     21 C1'        -0.6159   -0.9100    1.8769 C.3       1 ATP         0.2186
     22 N9         -1.7127   -1.6108    1.2130 N.pl3     1 ATP        -0.1699
     23 C8         -2.8662   -1.0361    0.7388 C.ar      1 ATP         0.4438
     24 N7         -3.6774   -1.9166    0.1867 N.2       1 ATP        -0.6280
     25 C5         -3.0159   -3.1045    0.3122 C.ar      1 ATP         0.2109
     26 C6         -3.4377   -4.4169   -0.1199 C.ar      1 ATP         0.6180
     27 N6         -4.5720   -4.5691   -0.7080 N.2       1 ATP        -0.8319
     28 N1         -2.4600   -5.3463    0.2071 N.pl3     1 ATP        -0.8664
     29 C2         -1.2595   -5.0554    0.8515 C.ar      1 ATP         0.5952
     30 N3         -0.8555   -3.8803    1.2516 N.2       1 ATP        -0.5599
     31 C4         -1.7946   -2.9457    0.9448 C.ar      1 ATP         0.0076
     32 HOG3       -5.6331    7.7327    0.4894 H         1 ATP         0.4101
     33 H5'1       -1.7771    2.7849    2.1387 H         1 ATP         0.0364
     34 H5'2       -1.1654    2.0541    0.6320 H         1 ATP         0.0364
     35 H4'         0.0403    1.7078    3.4343 H         1 ATP         0.0945
     36 H3'         1.5907    1.4859    1.1353 H         1 ATP         0.0703
     37 HO3'        2.6839   -0.1150    2.2479 H         1 ATP         0.4099
     38 H2'        -0.0017    0.0018    0.0005 H         1 ATP         0.0676
     39 HO2'        2.0953   -0.9375    0.0709 H         1 ATP         0.4291
     40 H1'        -0.1998   -1.6319    2.6178 H         1 ATP         0.0950
     41 H8         -3.0558    0.0252    0.8256 H         1 ATP         0.1135
     42 HN62       -4.7047   -5.5592   -0.9421 H         1 ATP         0.3588
     43 H2         -0.6372   -5.9505    1.0077 H         1 ATP         0.0302
     44 H44        -2.6338   -6.3155   -0.0469 H         1 ATP         0.4215
@<TRIPOS>BOND
     1    1    2 2
     2    1    3 1
     3    1    4 1
     4    1    8 1
     5    4   32 1
     6    5    6 2
     7    5    7 1
     8    5    8 1
     9    5   12 1
    10    9   10 2
    11    9   11 1
    12    9   12 1
    13    9   13 1
    14   13   14 1
    15   14   15 1
    16   14   33 1
    17   14   34 1
    18   15   16 1
    19   15   17 1
    20   15   35 1
    21   16   21 1
    22   17   18 1
    23   17   19 1
    24   17   36 1
    25   18   37 1
    26   19   20 1
    27   19   21 1
    28   19   38 1
    29   20   39 1
    30   21   22 1
    31   21   40 1
    32   22   23 ar
    33   22   31 ar
    34   23   24 ar
    35   23   41 1
    36   24   25 ar
    37   25   26 ar
    38   25   31 ar
    39   26   27 2
    40   26   28 ar
    41   27   42 1
    42   28   29 ar
    43   28   44 1
    44   29   30 ar
    45   29   43 1
    46   30   31 ar
@<TRIPOS>SUBSTRUCTURE
     1 ATP         1 GROUP 0 A     ****
@<TRIPOS>MOLECULE
[[[3,4-dihydroxy-5-(6-imino-1~{H}-purin-9-yl)tetrahydrofuran-2-yl]methoxy-oxido-phosphoryl]oxy-oxido-phosphoryl] hydrogen phosphate
   44    46     1     0     0
SMALL
USER_CHARGES

@<TRIPOS>ATOM
      1 PG         -7.3759    3.6503    0.9880 P.3       1 ATP         1.5257
      2 O1G        -7.7811    3.1117    2.3419 O.co2     1 ATP        -0.8737
      3 O2G        -8.1799    3.3238   -0.2508 O.co2     1 ATP        -0.8737
      4 O3G        -7.2290    5.2728    1.0980 O.3       1 ATP        -0.7971
      5 PB         -4.8232    3.7367   -0.5019 P.3       1 ATP         1.6824
      6 O1B        -5.3205    3.1164   -1.7886 O.co2     1 ATP        -0.8925
      7 O2B        -4.5777    5.2251   -0.3935 O.co2     1 ATP        -0.8925
      8 O3B        -5.8101    3.2789    0.7154 O.3       1 ATP        -0.8047
      9 PA         -1.9976    2.8867   -0.7222 P.3       1 ATP         1.5908
     10 O1A        -1.3784    4.2667   -0.6708 O.co2     1 ATP        -0.8932
     11 O2A        -2.1191    2.1418   -2.0338 O.co2     1 ATP        -0.8932
     12 O3A        -3.4752    2.9476   -0.0275 O.3       1 ATP        -0.8088
     13 O5'        -1.2434    1.9104    0.3515 O.3       1 ATP        -0.5646
     14 C5'        -0.8811    2.4285    1.6206 C.3       1 ATP         0.2204
     15 C4'        -0.1994    1.3333    2.4288 C.3       1 ATP         0.0965
     16 O4'        -1.1285    0.2356    2.5840 O.3       1 ATP        -0.3907
     17 C3'         1.0324    0.7610    1.7344 C.3       1 ATP         0.0763
     18 O3'         1.9175    0.2377    2.7247 O.3       1 ATP        -0.5884
     19 C2'         0.4468   -0.3802    0.9263 C.3       1 ATP         0.0784
     20 O2'         1.3993   -1.3703    0.5961 O.3       1 ATP        -0.6085
     21 C1'        -0.6159   -0.9100    1.8769 C.3       1 ATP         0.2186
     22 N9         -1.7127   -1.6108    1.2130 N.pl3     1 ATP        -0.1699
     23 C8         -2.8662   -1.0361    0.7388 C.ar      1 ATP         0.4438
     24 N7         -3.6774   -1.9166    0.1867 N.2       1 ATP        -0.6280
     25 C5         -3.0159   -3.1045    0.3122 C.ar      1 ATP         0.2109
     26 C6         -3.4377   -4.4169   -0.1199 C.ar      1 ATP         0.6180
     27 N6         -4.5720   -4.5691   -0.7080 N.2       1 ATP        -0.8319
     28 N1         -2.4600   -5.3463    0.2071 N.pl3     1 ATP        -0.8664
     29 C2         -1.2595   -5.0554    0.8515 C.ar      1 ATP         0.5952
     30 N3         -0.8555   -3.8803    1.2516 N.2       1 ATP        -0.5599
     31 C4         -1.7946   -2.9457    0.9448 C.ar      1 ATP         0.0076
     32 HOG3       -6.9692    5.7735    0.2955 H         1 ATP         0.4101
     33 H5'1       -0.2033    3.2760    1.4769 H         1 ATP         0.0364
     34 H5'2       -1.7841    2.7762    2.1323 H         1 ATP         0.0364
     35 H4'         0.0403    1.7078    3.4343 H         1 ATP         0.0945
     36 H3'         1.5907    1.4859    1.1353 H         1 ATP         0.0703
     37 HO3'        2.6839   -0.1150    2.2479 H         1 ATP         0.4099
     38 H2'        -0.0017    0.0018    0.0005 H         1 ATP         0.0676
     39 HO2'        2.0953   -0.9375    0.0709 H         1 ATP         0.4291
     40 H1'        -0.1998   -1.6319    2.6178 H         1 ATP         0.0950
     41 H8         -3.0558    0.0252    0.8256 H         1 ATP         0.1135
     42 HN62       -4.7047   -5.5592   -0.9421 H         1 ATP         0.3588
     43 H2         -0.6372   -5.9505    1.0077 H         1 ATP         0.0302
     44 H44        -2.6338   -6.3155   -0.0469 H         1 ATP         0.4215
@<TRIPOS>BOND
     1    1    2 2
     2    1    3 1
     3    1    4 1
     4    1    8 1
     5    4   32 1
     6    5    6 2
     7    5    7 1
     8    5    8 1
     9    5   12 1
    10    9   10 2
    11    9   11 1
    12    9   12 1
    13    9   13 1
    14   13   14 1
    15   14   15 1
    16   14   33 1
    17   14   34 1
    18   15   16 1
    19   15   17 1
    20   15   35 1
    21   16   21 1
    22   17   18 1
    23   17   19 1
    24   17   36 1
    25   18   37 1
    26   19   20 1
    27   19   21 1
    28   19   38 1
    29   20   39 1
    30   21   22 1
    31   21   40 1
    32   22   23 ar
    33   22   31 ar
    34   23   24 ar
    35   23   41 1
    36   24   25 ar
    37   25   26 ar
    38   25   31 ar
    39   26   27 2
    40   26   28 ar
    41   27   42 1
    42   28   29 ar
    43   28   44 1
    44   29   30 ar
    45   29   43 1
    46   30   31 ar
@<TRIPOS>SUBSTRUCTURE
     1 ATP         1 GROUP 0 A     ****
@<TRIPOS>MOLECULE
[[[3,4-dihydroxy-5-(6-imino-1~{H}-purin-9-yl)tetrahydrofuran-2-yl]methoxy-oxido-phosphoryl]oxy-oxido-phosphoryl] hydrogen phosphate
   44    46     1     0     0
SMALL
USER_CHARGES

@<TRIPOS>ATOM
      1 PG          5.1374    2.7034    5.0186 P.3       1 ATP         1.5257
      2 O1G         6.0861    1.6249    5.4921 O.co2     1 ATP        -0.8737
      3 O2G         4.0511    2.3959    4.0120 O.co2     1 ATP        -0.8737
      4 O3G         4.4506    3.4004    6.3257 O.3       1 ATP        -0.7971
      5 PB          6.9938    4.1049    3.1930 P.3       1 ATP         1.6824
      6 O1B         7.4217    5.5484    3.0487 O.co2     1 ATP        -0.8925
      7 O2B         8.0120    2.9880    3.2498 O.co2     1 ATP        -0.8925
      8 O3B         6.0058    3.9788    4.4867 O.3       1 ATP        -0.8047
      9 PA          6.0980    3.6799    0.4052 P.3       1 ATP         1.5908
     10 O1A         7.0185    2.5227    0.0832 O.co2     1 ATP        -0.8932
     11 O2A         6.3952    5.0713   -0.1100 O.co2     1 ATP        -0.8932
     12 O3A         5.9053    3.7626    2.0257 O.3       1 ATP        -0.8088
     13 O5'         4.5670    3.2937   -0.0211 O.3       1 ATP        -0.5646
     14 C5'         4.0922    1.9801    0.2227 C.3       1 ATP         0.2204
     15 C4'         2.5944    2.0310    0.4653 C.3       1 ATP         0.0965
     16 O4'         1.9327    2.5740   -0.6889 O.3       1 ATP        -0.3907
     17 C3'         1.9685    0.6634    0.6767 C.3       1 ATP         0.0763
     18 O3'         2.1425    0.1975    1.9977 O.3       1 ATP        -0.5884
     19 C2'         0.5176    0.9128    0.3099 C.3       1 ATP         0.0784
     20 O2'        -0.2103    1.4454    1.4152 O.3       1 ATP        -0.6085
     21 C1'         0.6219    1.9765   -0.7844 C.3       1 ATP         0.2186
     22 N9          0.4237    1.4496   -2.1357 N.pl3     1 ATP        -0.1699
     23 C8          1.4069    0.9710   -2.9662 C.ar      1 ATP         0.4438
     24 N7          0.9316    0.5623   -4.1260 N.2       1 ATP        -0.6280
     25 C5         -0.4120    0.7884   -4.0344 C.ar      1 ATP         0.2109
     26 C6         -1.4353    0.5283   -5.0204 C.ar      1 ATP         0.6180
     27 N6         -1.1199    0.0176   -6.1586 N.2       1 ATP        -0.8319
     28 N1         -2.6704    0.9095   -4.5147 N.pl3     1 ATP        -0.8664
     29 C2         -2.8863    1.4571   -3.2520 C.ar      1 ATP         0.5952
     30 N3         -1.9805    1.7017   -2.3442 N.2       1 ATP        -0.5599
     31 C4         -0.7561    1.3381   -2.8112 C.ar      1 ATP         0.0076
     32 HOG3        3.8051    4.1252    6.1833 H         1 ATP         0.4101
     33 H5'1        4.3179    1.3548   -0.6470 H         1 ATP         0.0364
     34 H5'2        4.6083    1.5737    1.0983 H         1 ATP         0.0364
     35 H4'         2.3752    2.7029    1.3156 H         1 ATP         0.0945
     36 H3'         2.4336   -0.1217   -0.0015 H         1 ATP         0.0703
     37 HO3'        1.7160   -0.6716    2.0397 H         1 ATP         0.4099
     38 H2'         0.0316    0.0155   -0.0339 H         1 ATP         0.0676
     39 HO2'       -0.1608    0.7921    2.1351 H         1 ATP         0.4291
     40 H1'        -0.1474    2.7798   -0.6651 H         1 ATP         0.0950
     41 H8          2.4466    0.9468   -2.6694 H         1 ATP         0.1135
     42 HN62       -1.9661   -0.0965   -6.7275 H         1 ATP         0.3588
     43 H2         -3.9481    1.6825   -3.0660 H         1 ATP         0.0302
     44 H44        -3.4814    0.7753   -5.1133 H         1 ATP         0.4215
@<TRIPOS>BOND
     1    1    2 2
     2    1    3 1
     3    1    4 1
     4    1    8 1
     5    4   32 1
     6    5    6 2
     7    5    7 1
     8    5    8 1
     9    5   12 1
    10    9   10 2
    11    9   11 1
    12    9   12 1
    13    9   13 1
    14   13   14 1
    15   14   15 1
    16   14   33 1
    17   14   34 1
    18   15   16 1
    19   15   17 1
    20   15   35 1
    21   16   21 1
    22   17   18 1
    23   17   19 1
    24   17   36 1
    25   18   37 1
    26   19   20 1
    27   19   21 1
    28   19   38 1
    29   20   39 1
    30   21   22 1
    31   21   40 1
    32   22   23 ar
    33   22   31 ar
    34   23   24 ar
    35   23   41 1
    36   24   25 ar
    37   25   26 ar
    38   25   31 ar
    39   26   27 2
    40   26   28 ar
    41   27   42 1
    42   28   29 ar
    43   28   44 1
    44   29   30 ar
    45   29   43 1
    46   30   31 ar
@<TRIPOS>SUBSTRUCTURE
     1 ATP         1 GROUP 0 A     ****
@<TRIPOS>MOLECULE
[[[3,4-dihydroxy-5-(6-imino-1~{H}-purin-9-yl)tetrahydrofuran-2-yl]methoxy-oxido-phosphoryl]oxy-oxido-phosphoryl] hydrogen phosphate
   44    46     1     0     0
SMALL
USER_CHARGES

@<TRIPOS>ATOM
      1 PG         -1.6089    9.4524    1.3376 P.3       1 ATP         1.5257
      2 O1G        -2.4728    9.7756    0.1390 O.co2     1 ATP        -0.8737
      3 O2G        -0.2467   10.0874    1.5078 O.co2     1 ATP        -0.8737
      4 O3G        -2.4795    9.7221    2.6923 O.3       1 ATP        -0.7971
      5 PB         -2.6061    6.6739    1.5090 P.3       1 ATP         1.6824
      6 O1B        -3.3882    6.8202    2.7953 O.co2     1 ATP        -0.8925
      7 O2B        -3.3047    6.6283    0.1683 O.co2     1 ATP        -0.8925
      8 O3B        -1.4563    7.8321    1.4610 O.3       1 ATP        -0.8047
      9 PA         -0.4665    4.8322    0.6228 P.3       1 ATP         1.5908
     10 O1A         0.6558    5.8467    0.5864 O.co2     1 ATP        -0.8932
     11 O2A        -1.1281    4.3644   -0.6552 O.co2     1 ATP        -0.8932
     12 O3A        -1.6297    5.3718    1.6355 O.3       1 ATP        -0.8088
     13 O5'         0.0178    3.5131    1.4595 O.3       1 ATP        -0.5646
     14 C5'        -0.8811    2.4285    1.6206 C.3       1 ATP         0.2204
     15 C4'        -0.1994    1.3333    2.4288 C.3       1 ATP         0.0965
     16 O4'        -1.1285    0.2356    2.5840 O.3       1 ATP        -0.3907
     17 C3'         1.0324    0.7610    1.7344 C.3       1 ATP         0.0763
     18 O3'         1.9175    0.2377    2.7247 O.3       1 ATP        -0.5884
     19 C2'         0.4468   -0.3802    0.9263 C.3       1 ATP         0.0784
     20 O2'         1.3993   -1.3703    0.5961 O.3       1 ATP        -0.6085
     21 C1'        -0.6159   -0.9100    1.8769 C.3       1 ATP         0.2186
     22 N9         -1.7127   -1.6108    1.2130 N.pl3     1 ATP        -0.1699
     23 C8         -2.5485   -1.0808    0.2609 C.ar      1 ATP         0.4438
     24 N7         -3.4476   -1.9486   -0.1593 N.2       1 ATP        -0.6280
     25 C5         -3.1762   -3.0816    0.5530 C.ar      1 ATP         0.2109
     26 C6         -3.8510   -4.3579    0.5006 C.ar      1 ATP         0.6180
     27 N6         -4.8468   -4.5293   -0.2961 N.2       1 ATP        -0.8319
     28 N1         -3.2499   -5.2342    1.3937 N.pl3     1 ATP        -0.8664
     29 C2         -2.1646   -4.9275    2.2116 C.ar      1 ATP         0.5952
     30 N3         -1.5382   -3.7840    2.2778 N.2       1 ATP        -0.5599
     31 C4         -2.1054   -2.9018    1.4120 C.ar      1 ATP         0.0076
     32 HOG3       -2.0546    9.5570    3.5609 H         1 ATP         0.4101
     33 H5'1       -1.7771    2.7849    2.1387 H         1 ATP         0.0364
     34 H5'2       -1.1654    2.0541    0.6320 H         1 ATP         0.0364
     35 H4'         0.0403    1.7078    3.4343 H         1 ATP         0.0945
     36 H3'         1.5907    1.4859    1.1353 H         1 ATP         0.0703
     37 HO3'        2.1521    0.9800    3.3017 H         1 ATP         0.4099
     38 H2'        -0.0017    0.0018    0.0005 H         1 ATP         0.0676
     39 HO2'        2.0953   -0.9375    0.0709 H         1 ATP         0.4291
     40 H1'        -0.1998   -1.6319    2.6178 H         1 ATP         0.0950
     41 H8         -2.4515   -0.0599   -0.0829 H         1 ATP         0.1135
     42 HN62       -5.1990   -5.4882   -0.2005 H         1 ATP         0.3588
     43 H2         -1.8555   -5.7783    2.8388 H         1 ATP         0.0302
     44 H44        -3.6312   -6.1750    1.4526 H         1 ATP         0.4215
@<TRIPOS>BOND
     1    1    2 2
     2    1    3 1
     3    1    4 1
     4    1    8 1
     5    4   32 1
     6    5    6 2
     7    5    7 1
     8    5    8 1
     9    5   12 1
    10    9   10 2
    11    9   11 1
    12    9   12 1
    13    9   13 1
    14   13   14 1
    15   14   15 1
    16   14   33 1
    17   14   34 1
    18   15   16 1
    19   15   17 1
    20   15   35 1
    21   16   21 1
    22   17   18 1
    23   17   19 1
    24   17   36 1
    25   18   37 1
    26   19   20 1
    27   19   21 1
    28   19   38 1
    29   20   39 1
    30   21   22 1
    31   21   40 1
    32   22   23 ar
    33   22   31 ar
    34   23   24 ar
    35   23   41 1
    36   24   25 ar
    37   25   26 ar
    38   25   31 ar
    39   26   27 2
    40   26   28 ar
    41   27   42 1
    42   28   29 ar
    43   28   44 1
    44   29   30 ar
    45   29   43 1
    46   30   31 ar
@<TRIPOS>SUBSTRUCTURE
     1 ATP         1 GROUP 0 A     ****
@<TRIPOS>MOLECULE
[[[3,4-dihydroxy-5-(6-imino-1~{H}-purin-9-yl)tetrahydrofuran-2-yl]methoxy-oxido-phosphoryl]oxy-oxido-phosphoryl] hydrogen phosphate
   44    46     1     0     0
SMALL
USER_CHARGES

@<TRIPOS>ATOM
      1 PG          2.4810    5.7832    5.7864 P.3       1 ATP         1.5257
      2 O1G         1.9703    6.0982    7.1746 O.co2     1 ATP        -0.8737
      3 O2G         3.1914    6.8340    4.9625 O.co2     1 ATP        -0.8737
      4 O3G         3.4340    4.4601    5.8721 O.3       1 ATP        -0.7971
      5 PB         -0.1155    5.8502    4.3731 P.3       1 ATP         1.6824
      6 O1B        -0.9860    6.1715    5.5675 O.co2     1 ATP        -0.8925
      7 O2B         0.2381    6.9100    3.3537 O.co2     1 ATP        -0.8925
      8 O3B         1.2625    5.1526    4.9024 O.3       1 ATP        -0.8047
      9 PA         -2.1561    4.4278    2.7707 P.3       1 ATP         1.5908
     10 O1A        -2.0925    5.3170    1.5478 O.co2     1 ATP        -0.8932
     11 O2A        -3.2978    4.5484    3.7564 O.co2     1 ATP        -0.8932
     12 O3A        -0.7509    4.5646    3.5932 O.3       1 ATP        -0.8088
     13 O5'        -2.0401    2.8620    2.3128 O.3       1 ATP        -0.5646
     14 C5'        -0.8811    2.4285    1.6206 C.3       1 ATP         0.2204
     15 C4'        -0.1994    1.3333    2.4288 C.3       1 ATP         0.0965
     16 O4'        -1.1285    0.2356    2.5840 O.3       1 ATP        -0.3907
     17 C3'         1.0324    0.7610    1.7344 C.3       1 ATP         0.0763
     18 O3'         1.9175    0.2377    2.7247 O.3       1 ATP        -0.5884
     19 C2'         0.4468   -0.3802    0.9263 C.3       1 ATP         0.0784
     20 O2'         1.3993   -1.3703    0.5961 O.3       1 ATP        -0.6085
     21 C1'        -0.6159   -0.9100    1.8769 C.3       1 ATP         0.2186
     22 N9         -1.7127   -1.6108    1.2130 N.pl3     1 ATP        -0.1699
     23 C8         -1.7690   -2.9583    0.9549 C.ar      1 ATP         0.4438
     24 N7         -2.8827   -3.3076    0.3418 N.2       1 ATP        -0.6280
     25 C5         -3.5683   -2.1351    0.2017 C.ar      1 ATP         0.2109
     26 C6         -4.8617   -1.9185   -0.4044 C.ar      1 ATP         0.6180
     27 N6         -5.5166   -2.9094   -0.8993 N.2       1 ATP        -0.8319
     28 N1         -5.1837   -0.5701   -0.3344 N.pl3     1 ATP        -0.8664
     29 C2         -4.3821    0.4180    0.2330 C.ar      1 ATP         0.5952
     30 N3         -3.2117    0.2488    0.7860 N.2       1 ATP        -0.5599
     31 C4         -2.8672   -1.0657    0.7327 C.ar      1 ATP         0.0076
     32 HOG3        3.8451    4.1265    5.0463 H         1 ATP         0.4101
     33 H5'1       -1.1767    2.0502    0.6368 H         1 ATP         0.0364
     34 H5'2       -0.2080    3.2814    1.4876 H         1 ATP         0.0364
     35 H4'         0.0403    1.7078    3.4343 H         1 ATP         0.0945
     36 H3'         1.5907    1.4859    1.1353 H         1 ATP         0.0703
     37 HO3'        2.1521    0.9800    3.3017 H         1 ATP         0.4099
     38 H2'        -0.0017    0.0018    0.0005 H         1 ATP         0.0676
     39 HO2'        2.0953   -0.9375    0.0709 H         1 ATP         0.4291
     40 H1'        -0.1998   -1.6319    2.6178 H         1 ATP         0.0950
     41 H8         -0.9697   -3.6300    1.2371 H         1 ATP         0.1135
     42 HN62       -6.4060   -2.5723   -1.2840 H         1 ATP         0.3588
     43 H2         -4.8409    1.4176    0.1757 H         1 ATP         0.0302
     44 H44        -6.0768   -0.2826   -0.7263 H         1 ATP         0.4215
@<TRIPOS>BOND
     1    1    2 2
     2    1    3 1
     3    1    4 1
     4    1    8 1
     5    4   32 1
     6    5    6 2
     7    5    7 1
     8    5    8 1
     9    5   12 1
    10    9   10 2
    11    9   11 1
    12    9   12 1
    13    9   13 1
    14   13   14 1
    15   14   15 1
    16   14   33 1
    17   14   34 1
    18   15   16 1
    19   15   17 1
    20   15   35 1
    21   16   21 1
    22   17   18 1
    23   17   19 1
    24   17   36 1
    25   18   37 1
    26   19   20 1
    27   19   21 1
    28   19   38 1
    29   20   39 1
    30   21   22 1
    31   21   40 1
    32   22   23 ar
    33   22   31 ar
    34   23   24 ar
    35   23   41 1
    36   24   25 ar
    37   25   26 ar
    38   25   31 ar
    39   26   27 2
    40   26   28 ar
    41   27   42 1
    42   28   29 ar
    43   28   44 1
    44   29   30 ar
    45   29   43 1
    46   30   31 ar
@<TRIPOS>SUBSTRUCTURE
     1 ATP         1 GROUP 0 A     ****
@<TRIPOS>MOLECULE
[[[3,4-dihydroxy-5-(6-imino-1~{H}-purin-9-yl)tetrahydrofuran-2-yl]methoxy-oxido-phosphoryl]oxy-oxido-phosphoryl] hydrogen phosphate
   44    46     1     0     0
SMALL
USER_CHARGES

@<TRIPOS>ATOM
      1 PG         -5.0462    7.2449    0.2475 P.3       1 ATP         1.5257
      2 O1G        -5.8245    6.7231   -0.9397 O.co2     1 ATP        -0.8737
      3 O2G        -4.6688    8.7061    0.3481 O.co2     1 ATP        -0.8737
      4 O3G        -5.8340    6.8178    1.6124 O.3       1 ATP        -0.7971
      5 PB         -2.3895    6.1938   -0.5145 P.3       1 ATP         1.6824
      6 O1B        -2.8016    5.5237   -1.8063 O.co2     1 ATP        -0.8925
      7 O2B        -1.6460    7.5109   -0.5178 O.co2     1 ATP        -0.8925
      8 O3B        -3.7040    6.3372    0.4432 O.3       1 ATP        -0.8047
      9 PA         -0.0889    4.4444    0.1193 P.3       1 ATP         1.5908
     10 O1A         0.9661    5.5282    0.1728 O.co2     1 ATP        -0.8932
     11 O2A        -0.2001    3.5318   -1.0825 O.co2     1 ATP        -0.8932
     12 O3A        -1.5516    5.1216    0.3871 O.3       1 ATP        -0.8088
     13 O5'         0.0178    3.5131    1.4595 O.3       1 ATP        -0.5646
     14 C5'        -0.8811    2.4285    1.6206 C.3       1 ATP         0.2204
     15 C4'        -0.1994    1.3333    2.4288 C.3       1 ATP         0.0965
     16 O4'        -1.1285    0.2356    2.5840 O.3       1 ATP        -0.3907
     17 C3'         1.0324    0.7610    1.7344 C.3       1 ATP         0.0763
     18 O3'         1.9175    0.2377    2.7247 O.3       1 ATP        -0.5884
     19 C2'         0.4468   -0.3802    0.9263 C.3       1 ATP         0.0784
     20 O2'         1.3993   -1.3703    0.5961 O.3       1 ATP        -0.6085
     21 C1'        -0.6159   -0.9100    1.8769 C.3       1 ATP         0.2186
     22 N9         -1.7127   -1.6108    1.2130 N.pl3     1 ATP        -0.1699
     23 C8         -1.7690   -2.9583    0.9549 C.ar      1 ATP         0.4438
     24 N7         -2.8827   -3.3076    0.3418 N.2       1 ATP        -0.6280
     25 C5         -3.5683   -2.1351    0.2017 C.ar      1 ATP         0.2109
     26 C6         -4.8617   -1.9185   -0.4044 C.ar      1 ATP         0.6180
     27 N6         -5.5166   -2.9094   -0.8993 N.2       1 ATP        -0.8319
     28 N1         -5.1837   -0.5701   -0.3344 N.pl3     1 ATP        -0.8664
     29 C2         -4.3821    0.4180    0.2330 C.ar      1 ATP         0.5952
     30 N3         -3.2117    0.2488    0.7860 N.2       1 ATP        -0.5599
     31 C4         -2.8672   -1.0657    0.7327 C.ar      1 ATP         0.0076
     32 HOG3       -5.4516    7.0851    2.4753 H         1 ATP         0.4101
     33 H5'1       -1.7771    2.7849    2.1387 H         1 ATP         0.0364
     34 H5'2       -1.1654    2.0541    0.6320 H         1 ATP         0.0364
     35 H4'         0.0403    1.7078    3.4343 H         1 ATP         0.0945
     36 H3'         1.5907    1.4859    1.1353 H         1 ATP         0.0703
     37 HO3'        2.1521    0.9800    3.3017 H         1 ATP         0.4099
     38 H2'        -0.0017    0.0018    0.0005 H         1 ATP         0.0676
     39 HO2'        0.9369   -2.0558    0.0825 H         1 ATP         0.4291
     40 H1'        -0.1998   -1.6319    2.6178 H         1 ATP         0.0950
     41 H8         -0.9697   -3.6300    1.2371 H         1 ATP         0.1135
     42 HN62       -6.4060   -2.5723   -1.2840 H         1 ATP         0.3588
     43 H2         -4.8409    1.4176    0.1757 H         1 ATP         0.0302
     44 H44        -6.0768   -0.2826   -0.7263 H         1 ATP         0.4215
@<TRIPOS>BOND
     1    1    2 2
     2    1    3 1
     3    1    4 1
     4    1    8 1
     5    4   32 1
     6    5    6 2
     7    5    7 1
     8    5    8 1
     9    5   12 1
    10    9   10 2
    11    9   11 1
    12    9   12 1
    13    9   13 1
    14   13   14 1
    15   14   15 1
    16   14   33 1
    17   14   34 1
    18   15   16 1
    19   15   17 1
    20   15   35 1
    21   16   21 1
    22   17   18 1
    23   17   19 1
    24   17   36 1
    25   18   37 1
    26   19   20 1
    27   19   21 1
    28   19   38 1
    29   20   39 1
    30   21   22 1
    31   21   40 1
    32   22   23 ar
    33   22   31 ar
    34   23   24 ar
    35   23   41 1
    36   24   25 ar
    37   25   26 ar
    38   25   31 ar
    39   26   27 2
    40   26   28 ar
    41   27   42 1
    42   28   29 ar
    43   28   44 1
    44   29   30 ar
    45   29   43 1
    46   30   31 ar
@<TRIPOS>SUBSTRUCTURE
     1 ATP         1 GROUP 0 A     ****
@<TRIPOS>MOLECULE
[[[3,4-dihydroxy-5-(6-imino-1~{H}-purin-9-yl)tetrahydrofuran-2-yl]methoxy-oxido-phosphoryl]oxy-oxido-phosphoryl] hydrogen phosphate
   44    46     1     0     0
SMALL
USER_CHARGES

@<TRIPOS>ATOM
      1 PG          3.3973    3.0396   -3.4189 P.3       1 ATP         1.5257
      2 O1G         3.9796    1.6476   -3.3151 O.co2     1 ATP        -0.8737
      3 O2G         4.2907    4.2422   -3.6273 O.co2     1 ATP        -0.8737
      4 O3G         2.2516    3.0371   -4.5822 O.3       1 ATP        -0.7971
      5 PB          1.4493    4.5708   -1.8053 P.3       1 ATP         1.6824
      6 O1B         2.2940    5.8068   -1.5903 O.co2     1 ATP        -0.8925
      7 O2B         0.3122    4.5628   -2.8025 O.co2     1 ATP        -0.8925
      8 O3B         2.4370    3.3114   -2.1276 O.3       1 ATP        -0.8047
      9 PA         -0.1844    4.7788    0.6530 P.3       1 ATP         1.5908
     10 O1A        -1.5385    4.8262   -0.0211 O.co2     1 ATP        -0.8932
     11 O2A         0.4501    6.0373    1.2036 O.co2     1 ATP        -0.8932
     12 O3A         0.8819    4.0669   -0.3600 O.3       1 ATP        -0.8088
     13 O5'        -0.2062    3.6557    1.8417 O.3       1 ATP        -0.5646
     14 C5'        -0.8811    2.4285    1.6206 C.3       1 ATP         0.2204
     15 C4'        -0.1994    1.3333    2.4288 C.3       1 ATP         0.0965
     16 O4'        -1.1285    0.2356    2.5840 O.3       1 ATP        -0.3907
     17 C3'         1.0324    0.7610    1.7344 C.3       1 ATP         0.0763
     18 O3'         1.9175    0.2377    2.7247 O.3       1 ATP        -0.5884
     19 C2'         0.4468   -0.3802    0.9263 C.3       1 ATP         0.0784
     20 O2'         1.3993   -1.3703    0.5961 O.3       1 ATP        -0.6085
     21 C1'        -0.6159   -0.9100    1.8769 C.3       1 ATP         0.2186
     22 N9         -1.7127   -1.6108    1.2130 N.pl3     1 ATP        -0.1699
     23 C8         -2.5485   -1.0808    0.2609 C.ar      1 ATP         0.4438
     24 N7         -3.4476   -1.9486   -0.1593 N.2       1 ATP        -0.6280
     25 C5         -3.1762   -3.0816    0.5530 C.ar      1 ATP         0.2109
     26 C6         -3.8510   -4.3579    0.5006 C.ar      1 ATP         0.6180
     27 N6         -4.8468   -4.5293   -0.2961 N.2       1 ATP        -0.8319
     28 N1         -3.2499   -5.2342    1.3937 N.pl3     1 ATP        -0.8664
     29 C2         -2.1646   -4.9275    2.2116 C.ar      1 ATP         0.5952
     30 N3         -1.5382   -3.7840    2.2778 N.2       1 ATP        -0.5599
     31 C4         -2.1054   -2.9018    1.4120 C.ar      1 ATP         0.0076
     32 HOG3        1.7765    3.8742   -4.7714 H         1 ATP         0.4101
     33 H5'1       -1.9256    2.5380    1.9293 H         1 ATP         0.0364
     34 H5'2       -0.8474    2.1930    0.5521 H         1 ATP         0.0364
     35 H4'         0.0403    1.7078    3.4343 H         1 ATP         0.0945
     36 H3'         1.5907    1.4859    1.1353 H         1 ATP         0.0703
     37 HO3'        2.6839   -0.1150    2.2479 H         1 ATP         0.4099
     38 H2'        -0.0017    0.0018    0.0005 H         1 ATP         0.0676
     39 HO2'        2.0953   -0.9375    0.0709 H         1 ATP         0.4291
     40 H1'        -0.1998   -1.6319    2.6178 H         1 ATP         0.0950
     41 H8         -2.4515   -0.0599   -0.0829 H         1 ATP         0.1135
     42 HN62       -5.1990   -5.4882   -0.2005 H         1 ATP         0.3588
     43 H2         -1.8555   -5.7783    2.8388 H         1 ATP         0.0302
     44 H44        -3.6312   -6.1750    1.4526 H         1 ATP         0.4215
@<TRIPOS>BOND
     1    1    2 2
     2    1    3 1
     3    1    4 1
     4    1    8 1
     5    4   32 1
     6    5    6 2
     7    5    7 1
     8    5    8 1
     9    5   12 1
    10    9   10 2
    11    9   11 1
    12    9   12 1
    13    9   13 1
    14   13   14 1
    15   14   15 1
    16   14   33 1
    17   14   34 1
    18   15   16 1
    19   15   17 1
    20   15   35 1
    21   16   21 1
    22   17   18 1
    23   17   19 1
    24   17   36 1
    25   18   37 1
    26   19   20 1
    27   19   21 1
    28   19   38 1
    29   20   39 1
    30   21   22 1
    31   21   40 1
    32   22   23 ar
    33   22   31 ar
    34   23   24 ar
    35   23   41 1
    36   24   25 ar
    37   25   26 ar
    38   25   31 ar
    39   26   27 2
    40   26   28 ar
    41   27   42 1
    42   28   29 ar
    43   28   44 1
    44   29   30 ar
    45   29   43 1
    46   30   31 ar
@<TRIPOS>SUBSTRUCTURE
     1 ATP         1 GROUP 0 A     ****
@<TRIPOS>MOLECULE
[[[3,4-dihydroxy-5-(6-imino-1~{H}-purin-9-yl)tetrahydrofuran-2-yl]methoxy-oxido-phosphoryl]oxy-oxido-phosphoryl] hydrogen phosphate
   44    46     1     0     0
SMALL
USER_CHARGES

@<TRIPOS>ATOM
      1 PG          7.4680    1.0361   -5.2677 P.3       1 ATP         1.5257
      2 O1G         8.4396   -0.0665   -4.9103 O.co2     1 ATP        -0.8737
      3 O2G         7.8805    2.1702   -6.1795 O.co2     1 ATP        -0.8737
      4 O3G         6.1099    0.3565   -5.8674 O.3       1 ATP        -0.7971
      5 PB          7.5743    2.5160   -2.7100 P.3       1 ATP         1.6824
      6 O1B         8.5587    1.6156   -1.9976 O.co2     1 ATP        -0.8925
      7 O2B         8.0006    3.8547   -3.2702 O.co2     1 ATP        -0.8925
      8 O3B         6.8453    1.6610   -3.8946 O.3       1 ATP        -0.8047
      9 PA          6.1593    3.5241   -0.3148 P.3       1 ATP         1.5908
     10 O1A         6.4223    4.9968   -0.5434 O.co2     1 ATP        -0.8932
     11 O2A         6.9473    2.7489    0.7186 O.co2     1 ATP        -0.8932
     12 O3A         6.2776    2.7414   -1.7442 O.3       1 ATP        -0.8088
     13 O5'         4.5670    3.2937   -0.0211 O.3       1 ATP        -0.5646
     14 C5'         4.0922    1.9801    0.2227 C.3       1 ATP         0.2204
     15 C4'         2.5944    2.0310    0.4653 C.3       1 ATP         0.0965
     16 O4'         1.9327    2.5740   -0.6889 O.3       1 ATP        -0.3907
     17 C3'         1.9685    0.6634    0.6767 C.3       1 ATP         0.0763
     18 O3'         2.1425    0.1975    1.9977 O.3       1 ATP        -0.5884
     19 C2'         0.5176    0.9128    0.3099 C.3       1 ATP         0.0784
     20 O2'        -0.2103    1.4454    1.4152 O.3       1 ATP        -0.6085
     21 C1'         0.6219    1.9765   -0.7844 C.3       1 ATP         0.2186
     22 N9          0.4237    1.4496   -2.1357 N.pl3     1 ATP        -0.1699
     23 C8         -0.7779    1.3483   -2.7928 C.ar      1 ATP         0.4438
     24 N7         -0.6499    0.8341   -3.9999 N.2       1 ATP        -0.6280
     25 C5          0.6893    0.5965   -4.1212 C.ar      1 ATP         0.2109
     26 C6          1.4031    0.0342   -5.2443 C.ar      1 ATP         0.6180
     27 N6          0.7649   -0.3130   -6.3063 N.2       1 ATP        -0.8319
     28 N1          2.7566   -0.0326   -4.9437 N.pl3     1 ATP        -0.8664
     29 C2          3.3337    0.3796   -3.7446 C.ar      1 ATP         0.5952
     30 N3          2.7120    0.8899   -2.7163 N.2       1 ATP        -0.5599
     31 C4          1.3803    0.9684   -2.9805 C.ar      1 ATP         0.0076
     32 HOG3        5.3775    0.9457   -6.1477 H         1 ATP         0.4101
     33 H5'1        4.3179    1.3548   -0.6470 H         1 ATP         0.0364
     34 H5'2        4.6083    1.5737    1.0983 H         1 ATP         0.0364
     35 H4'         2.3752    2.7029    1.3156 H         1 ATP         0.0945
     36 H3'         2.4336   -0.1217   -0.0015 H         1 ATP         0.0703
     37 HO3'        1.7160   -0.6716    2.0397 H         1 ATP         0.4099
     38 H2'         0.0316    0.0155   -0.0339 H         1 ATP         0.0676
     39 HO2'       -0.1608    0.7921    2.1351 H         1 ATP         0.4291
     40 H1'        -0.1474    2.7798   -0.6651 H         1 ATP         0.0950
     41 H8         -1.7076    1.6648   -2.3398 H         1 ATP         0.1135
     42 HN62        1.4266   -0.6890   -6.9943 H         1 ATP         0.3588
     43 H2          4.4251    0.2326   -3.7294 H         1 ATP         0.0302
     44 H44         3.3750   -0.4100   -5.6572 H         1 ATP         0.4215
@<TRIPOS>BOND
     1    1    2 2
     2    1    3 1
     3    1    4 1
     4    1    8 1
     5    4   32 1
     6    5    6 2
     7    5    7 1
     8    5    8 1
     9    5   12 1
    10    9   10 2
    11    9   11 1
    12    9   12 1
    13    9   13 1
    14   13   14 1
    15   14   15 1
    16   14   33 1
    17   14   34 1
    18   15   16 1
    19   15   17 1
    20   15   35 1
    21   16   21 1
    22   17   18 1
    23   17   19 1
    24   17   36 1
    25   18   37 1
    26   19   20 1
    27   19   21 1
    28   19   38 1
    29   20   39 1
    30   21   22 1
    31   21   40 1
    32   22   23 ar
    33   22   31 ar
    34   23   24 ar
    35   23   41 1
    36   24   25 ar
    37   25   26 ar
    38   25   31 ar
    39   26   27 2
    40   26   28 ar
    41   27   42 1
    42   28   29 ar
    43   28   44 1
    44   29   30 ar
    45   29   43 1
    46   30   31 ar
@<TRIPOS>SUBSTRUCTURE
     1 ATP         1 GROUP 0 A     ****
@<TRIPOS>MOLECULE
[[[3,4-dihydroxy-5-(6-imino-1~{H}-purin-9-yl)tetrahydrofuran-2-yl]methoxy-oxido-phosphoryl]oxy-oxido-phosphoryl] hydrogen phosphate
   44    46     1     0     0
SMALL
USER_CHARGES

@<TRIPOS>ATOM
      1 PG         -7.8693    3.4131    1.9943 P.3       1 ATP         1.5257
      2 O1G        -8.1574    4.3235    3.1672 O.co2     1 ATP        -0.8737
      3 O2G        -8.6070    2.1032    1.8275 O.co2     1 ATP        -0.8737
      4 O3G        -8.0270    4.2759    0.6171 O.3       1 ATP        -0.7971
      5 PB         -5.3881    2.3486    0.7885 P.3       1 ATP         1.6824
      6 O1B        -5.7700    0.8852    0.8020 O.co2     1 ATP        -0.8925
      7 O2B        -5.4239    3.1558   -0.4901 O.co2     1 ATP        -0.8925
      8 O3B        -6.2637    3.1285    1.9246 O.3       1 ATP        -0.8047
      9 PA         -3.0798    3.8627    1.8536 P.3       1 ATP         1.5908
     10 O1A        -3.8220    4.5968    2.9492 O.co2     1 ATP        -0.8932
     11 O2A        -2.6995    4.5681    0.5701 O.co2     1 ATP        -0.8932
     12 O3A        -3.9133    2.5109    1.4692 O.3       1 ATP        -0.8088
     13 O5'        -1.7336    3.1724    2.4750 O.3       1 ATP        -0.5646
     14 C5'        -0.8811    2.4285    1.6206 C.3       1 ATP         0.2204
     15 C4'        -0.1994    1.3333    2.4288 C.3       1 ATP         0.0965
     16 O4'        -1.1285    0.2356    2.5840 O.3       1 ATP        -0.3907
     17 C3'         1.0324    0.7610    1.7344 C.3       1 ATP         0.0763
     18 O3'         1.9175    0.2377    2.7247 O.3       1 ATP        -0.5884
     19 C2'         0.4468   -0.3802    0.9263 C.3       1 ATP         0.0784
     20 O2'         1.3993   -1.3703    0.5961 O.3       1 ATP        -0.6085
     21 C1'        -0.6159   -0.9100    1.8769 C.3       1 ATP         0.2186
     22 N9         -1.7127   -1.6108    1.2130 N.pl3     1 ATP        -0.1699
     23 C8         -2.0868   -2.9137    1.4327 C.ar      1 ATP         0.4438
     24 N7         -3.1125   -3.2756    0.6878 N.2       1 ATP        -0.6280
     25 C5         -3.4079   -2.1580   -0.0391 C.ar      1 ATP         0.2109
     26 C6         -4.4483   -1.9775   -1.0249 C.ar      1 ATP         0.6180
     27 N6         -5.2418   -2.9492   -1.3113 N.2       1 ATP        -0.8319
     28 N1         -4.3937   -0.6823   -1.5211 N.pl3     1 ATP        -0.8664
     29 C2         -3.4770    0.2901   -1.1271 C.ar      1 ATP         0.5952
     30 N3         -2.5289    0.1525   -0.2402 N.2       1 ATP        -0.5599
     31 C4         -2.5564   -1.1096    0.2655 C.ar      1 ATP         0.0076
     32 HOG3       -7.8708    3.8222   -0.2386 H         1 ATP         0.4101
     33 H5'1       -1.4800    1.9927    0.8146 H         1 ATP         0.0364
     34 H5'2       -0.1367    3.1040    1.1872 H         1 ATP         0.0364
     35 H4'         0.0403    1.7078    3.4343 H         1 ATP         0.0945
     36 H3'         1.5907    1.4859    1.1353 H         1 ATP         0.0703
     37 HO3'        2.6839   -0.1150    2.2479 H         1 ATP         0.4099
     38 H2'        -0.0017    0.0018    0.0005 H         1 ATP         0.0676
     39 HO2'        2.0953   -0.9375    0.0709 H         1 ATP         0.4291
     40 H1'        -0.1998   -1.6319    2.6178 H         1 ATP         0.0950
     41 H8         -1.5740   -3.5449    2.1457 H         1 ATP         0.1135
     42 HN62       -5.9117   -2.6433   -2.0256 H         1 ATP         0.3588
     43 H2         -3.6225    1.2454   -1.6553 H         1 ATP         0.0302
     44 H44        -5.0794   -0.4231   -2.2258 H         1 ATP         0.4215
@<TRIPOS>BOND
     1    1    2 2
     2    1    3 1
     3    1    4 1
     4    1    8 1
     5    4   32 1
     6    5    6 2
     7    5    7 1
     8    5    8 1
     9    5   12 1
    10    9   10 2
    11    9   11 1
    12    9   12 1
    13    9   13 1
    14   13   14 1
    15   14   15 1
    16   14   33 1
    17   14   34 1
    18   15   16 1
    19   15   17 1
    20   15   35 1
    21   16   21 1
    22   17   18 1
    23   17   19 1
    24   17   36 1
    25   18   37 1
    26   19   20 1
    27   19   21 1
    28   19   38 1
    29   20   39 1
    30   21   22 1
    31   21   40 1
    32   22   23 ar
    33   22   31 ar
    34   23   24 ar
    35   23   41 1
    36   24   25 ar
    37   25   26 ar
    38   25   31 ar
    39   26   27 2
    40   26   28 ar
    41   27   42 1
    42   28   29 ar
    43   28   44 1
    44   29   30 ar
    45   29   43 1
    46   30   31 ar
@<TRIPOS>SUBSTRUCTURE
     1 ATP         1 GROUP 0 A     ****
@<TRIPOS>MOLECULE
[[[3,4-dihydroxy-5-(6-imino-1~{H}-purin-9-yl)tetrahydrofuran-2-yl]methoxy-oxido-phosphoryl]oxy-oxido-phosphoryl] hydrogen phosphate
   44    46     1     0     0
SMALL
USER_CHARGES

@<TRIPOS>ATOM
      1 PG          3.3973    3.0396   -3.4189 P.3       1 ATP         1.5257
      2 O1G         3.9796    1.6476   -3.3151 O.co2     1 ATP        -0.8737
      3 O2G         4.2907    4.2422   -3.6273 O.co2     1 ATP        -0.8737
      4 O3G         2.2516    3.0371   -4.5822 O.3       1 ATP        -0.7971
      5 PB          1.4493    4.5708   -1.8053 P.3       1 ATP         1.6824
      6 O1B         2.2940    5.8068   -1.5903 O.co2     1 ATP        -0.8925
      7 O2B         0.3122    4.5628   -2.8025 O.co2     1 ATP        -0.8925
      8 O3B         2.4370    3.3114   -2.1276 O.3       1 ATP        -0.8047
      9 PA         -0.1844    4.7788    0.6530 P.3       1 ATP         1.5908
     10 O1A        -1.5385    4.8262   -0.0211 O.co2     1 ATP        -0.8932
     11 O2A         0.4501    6.0373    1.2036 O.co2     1 ATP        -0.8932
     12 O3A         0.8819    4.0669   -0.3600 O.3       1 ATP        -0.8088
     13 O5'        -0.2062    3.6557    1.8417 O.3       1 ATP        -0.5646
     14 C5'        -0.8811    2.4285    1.6206 C.3       1 ATP         0.2204
     15 C4'        -0.1994    1.3333    2.4288 C.3       1 ATP         0.0965
     16 O4'        -1.1285    0.2356    2.5840 O.3       1 ATP        -0.3907
     17 C3'         1.0324    0.7610    1.7344 C.3       1 ATP         0.0763
     18 O3'         1.9175    0.2377    2.7247 O.3       1 ATP        -0.5884
     19 C2'         0.4468   -0.3802    0.9263 C.3       1 ATP         0.0784
     20 O2'         1.3993   -1.3703    0.5961 O.3       1 ATP        -0.6085
     21 C1'        -0.6159   -0.9100    1.8769 C.3       1 ATP         0.2186
     22 N9         -1.7127   -1.6108    1.2130 N.pl3     1 ATP        -0.1699
     23 C8         -1.7690   -2.9583    0.9549 C.ar      1 ATP         0.4438
     24 N7         -2.8827   -3.3076    0.3418 N.2       1 ATP        -0.6280
     25 C5         -3.5683   -2.1351    0.2017 C.ar      1 ATP         0.2109
     26 C6         -4.8617   -1.9185   -0.4044 C.ar      1 ATP         0.6180
     27 N6         -5.5166   -2.9094   -0.8993 N.2       1 ATP        -0.8319
     28 N1         -5.1837   -0.5701   -0.3344 N.pl3     1 ATP        -0.8664
     29 C2         -4.3821    0.4180    0.2330 C.ar      1 ATP         0.5952
     30 N3         -3.2117    0.2488    0.7860 N.2       1 ATP        -0.5599
     31 C4         -2.8672   -1.0657    0.7327 C.ar      1 ATP         0.0076
     32 HOG3        1.7765    3.8742   -4.7714 H         1 ATP         0.4101
     33 H5'1       -1.9256    2.5380    1.9293 H         1 ATP         0.0364
     34 H5'2       -0.8474    2.1930    0.5521 H         1 ATP         0.0364
     35 H4'         0.0403    1.7078    3.4343 H         1 ATP         0.0945
     36 H3'         1.5907    1.4859    1.1353 H         1 ATP         0.0703
     37 HO3'        2.6839   -0.1150    2.2479 H         1 ATP         0.4099
     38 H2'        -0.0017    0.0018    0.0005 H         1 ATP         0.0676
     39 HO2'        2.0953   -0.9375    0.0709 H         1 ATP         0.4291
     40 H1'        -0.1998   -1.6319    2.6178 H         1 ATP         0.0950
     41 H8         -0.9697   -3.6300    1.2371 H         1 ATP         0.1135
     42 HN62       -6.4060   -2.5723   -1.2840 H         1 ATP         0.3588
     43 H2         -4.8409    1.4176    0.1757 H         1 ATP         0.0302
     44 H44        -6.0768   -0.2826   -0.7263 H         1 ATP         0.4215
@<TRIPOS>BOND
     1    1    2 2
     2    1    3 1
     3    1    4 1
     4    1    8 1
     5    4   32 1
     6    5    6 2
     7    5    7 1
     8    5    8 1
     9    5   12 1
    10    9   10 2
    11    9   11 1
    12    9   12 1
    13    9   13 1
    14   13   14 1
    15   14   15 1
    16   14   33 1
    17   14   34 1
    18   15   16 1
    19   15   17 1
    20   15   35 1
    21   16   21 1
    22   17   18 1
    23   17   19 1
    24   17   36 1
    25   18   37 1
    26   19   20 1
    27   19   21 1
    28   19   38 1
    29   20   39 1
    30   21   22 1
    31   21   40 1
    32   22   23 ar
    33   22   31 ar
    34   23   24 ar
    35   23   41 1
    36   24   25 ar
    37   25   26 ar
    38   25   31 ar
    39   26   27 2
    40   26   28 ar
    41   27   42 1
    42   28   29 ar
    43   28   44 1
    44   29   30 ar
    45   29   43 1
    46   30   31 ar
@<TRIPOS>SUBSTRUCTURE
     1 ATP         1 GROUP 0 A     ****
@<TRIPOS>MOLECULE
[[[3,4-dihydroxy-5-(6-imino-1~{H}-purin-9-yl)tetrahydrofuran-2-yl]methoxy-oxido-phosphoryl]oxy-oxido-phosphoryl] hydrogen phosphate
   44    46     1     0     0
SMALL
USER_CHARGES

@<TRIPOS>ATOM
      1 PG         -4.1892    7.2974    3.8918 P.3       1 ATP         1.5257
      2 O1G        -5.6256    7.0161    3.5107 O.co2     1 ATP        -0.8737
      3 O2G        -3.6486    8.7099    3.8963 O.co2     1 ATP        -0.8737
      4 O3G        -3.8992    6.6266    5.3519 O.3       1 ATP        -0.7971
      5 PB         -2.9172    6.3868    1.3826 P.3       1 ATP         1.6824
      6 O1B        -4.1783    5.9765    0.6554 O.co2     1 ATP        -0.8925
      7 O2B        -2.2004    7.6743    1.0422 O.co2     1 ATP        -0.8925
      8 O3B        -3.2064    6.3577    2.9892 O.3       1 ATP        -0.8047
      9 PA         -0.3962    4.9846    2.0409 P.3       1 ATP         1.5908
     10 O1A        -0.6131    4.8935    3.5359 O.co2     1 ATP        -0.8932
     11 O2A         0.5545    6.0074    1.4581 O.co2     1 ATP        -0.8932
     12 O3A        -1.8470    5.1563    1.3092 O.3       1 ATP        -0.8088
     13 O5'         0.0178    3.5131    1.4595 O.3       1 ATP        -0.5646
     14 C5'        -0.8811    2.4285    1.6206 C.3       1 ATP         0.2204
     15 C4'        -0.1994    1.3333    2.4288 C.3       1 ATP         0.0965
     16 O4'        -1.1285    0.2356    2.5840 O.3       1 ATP        -0.3907
     17 C3'         1.0324    0.7610    1.7344 C.3       1 ATP         0.0763
     18 O3'         1.9175    0.2377    2.7247 O.3       1 ATP        -0.5884
     19 C2'         0.4468   -0.3802    0.9263 C.3       1 ATP         0.0784
     20 O2'         1.3993   -1.3703    0.5961 O.3       1 ATP        -0.6085
     21 C1'        -0.6159   -0.9100    1.8769 C.3       1 ATP         0.2186
     22 N9         -1.7127   -1.6108    1.2130 N.pl3     1 ATP        -0.1699
     23 C8         -2.8662   -1.0361    0.7388 C.ar      1 ATP         0.4438
     24 N7         -3.6774   -1.9166    0.1867 N.2       1 ATP        -0.6280
     25 C5         -3.0159   -3.1045    0.3122 C.ar      1 ATP         0.2109
     26 C6         -3.4377   -4.4169   -0.1199 C.ar      1 ATP         0.6180
     27 N6         -4.5720   -4.5691   -0.7080 N.2       1 ATP        -0.8319
     28 N1         -2.4600   -5.3463    0.2071 N.pl3     1 ATP        -0.8664
     29 C2         -1.2595   -5.0554    0.8515 C.ar      1 ATP         0.5952
     30 N3         -0.8555   -3.8803    1.2516 N.2       1 ATP        -0.5599
     31 C4         -1.7946   -2.9457    0.9448 C.ar      1 ATP         0.0076
     32 HOG3       -3.0035    6.7228    5.7403 H         1 ATP         0.4101
     33 H5'1       -1.7771    2.7849    2.1387 H         1 ATP         0.0364
     34 H5'2       -1.1654    2.0541    0.6320 H         1 ATP         0.0364
     35 H4'         0.0403    1.7078    3.4343 H         1 ATP         0.0945
     36 H3'         1.5907    1.4859    1.1353 H         1 ATP         0.0703
     37 HO3'        2.6839   -0.1150    2.2479 H         1 ATP         0.4099
     38 H2'        -0.0017    0.0018    0.0005 H         1 ATP         0.0676
     39 HO2'        2.0953   -0.9375    0.0709 H         1 ATP         0.4291
     40 H1'        -0.1998   -1.6319    2.6178 H         1 ATP         0.0950
     41 H8         -3.0558    0.0252    0.8256 H         1 ATP         0.1135
     42 HN62       -4.7047   -5.5592   -0.9421 H         1 ATP         0.3588
     43 H2         -0.6372   -5.9505    1.0077 H         1 ATP         0.0302
     44 H44        -2.6338   -6.3155   -0.0469 H         1 ATP         0.4215
@<TRIPOS>BOND
     1    1    2 2
     2    1    3 1
     3    1    4 1
     4    1    8 1
     5    4   32 1
     6    5    6 2
     7    5    7 1
     8    5    8 1
     9    5   12 1
    10    9   10 2
    11    9   11 1
    12    9   12 1
    13    9   13 1
    14   13   14 1
    15   14   15 1
    16   14   33 1
    17   14   34 1
    18   15   16 1
    19   15   17 1
    20   15   35 1
    21   16   21 1
    22   17   18 1
    23   17   19 1
    24   17   36 1
    25   18   37 1
    26   19   20 1
    27   19   21 1
    28   19   38 1
    29   20   39 1
    30   21   22 1
    31   21   40 1
    32   22   23 ar
    33   22   31 ar
    34   23   24 ar
    35   23   41 1
    36   24   25 ar
    37   25   26 ar
    38   25   31 ar
    39   26   27 2
    40   26   28 ar
    41   27   42 1
    42   28   29 ar
    43   28   44 1
    44   29   30 ar
    45   29   43 1
    46   30   31 ar
@<TRIPOS>SUBSTRUCTURE
     1 ATP         1 GROUP 0 A     ****
@<TRIPOS>MOLECULE
[[[3,4-dihydroxy-5-(6-imino-1~{H}-purin-9-yl)tetrahydrofuran-2-yl]methoxy-oxido-phosphoryl]oxy-oxido-phosphoryl] hydrogen phosphate
   44    46     1     0     0
SMALL
USER_CHARGES

@<TRIPOS>ATOM
      1 PG          7.2689    0.2729    3.6680 P.3       1 ATP         1.5257
      2 O1G         7.6362   -0.0978    2.2485 O.co2     1 ATP        -0.8737
      3 O2G         5.9725   -0.2031    4.2850 O.co2     1 ATP        -0.8737
      4 O3G         8.4995   -0.1570    4.6513 O.3       1 ATP        -0.7971
      5 PB          6.4702    3.0747    3.1628 P.3       1 ATP         1.6824
      6 O1B         5.0107    2.7866    3.4356 O.co2     1 ATP        -0.8925
      7 O2B         7.0834    4.4123    3.5127 O.co2     1 ATP        -0.8925
      8 O3B         7.3720    1.8928    3.8377 O.3       1 ATP        -0.8047
      9 PA          6.2486    3.4952    0.2423 P.3       1 ATP         1.5908
     10 O1A         6.7242    2.7153   -0.9643 O.co2     1 ATP        -0.8932
     11 O2A         6.5372    4.9751    0.3698 O.co2     1 ATP        -0.8932
     12 O3A         6.7835    2.7493    1.5941 O.3       1 ATP        -0.8088
     13 O5'         4.6405    3.2699    0.4378 O.3       1 ATP        -0.5646
     14 C5'         4.0922    1.9801    0.2227 C.3       1 ATP         0.2204
     15 C4'         2.5944    2.0310    0.4653 C.3       1 ATP         0.0965
     16 O4'         1.9327    2.5740   -0.6889 O.3       1 ATP        -0.3907
     17 C3'         1.9685    0.6634    0.6767 C.3       1 ATP         0.0763
     18 O3'         2.1425    0.1975    1.9977 O.3       1 ATP        -0.5884
     19 C2'         0.5176    0.9128    0.3099 C.3       1 ATP         0.0784
     20 O2'        -0.2103    1.4454    1.4152 O.3       1 ATP        -0.6085
     21 C1'         0.6219    1.9765   -0.7844 C.3       1 ATP         0.2186
     22 N9          0.4237    1.4496   -2.1357 N.pl3     1 ATP        -0.1699
     23 C8          1.4069    0.9710   -2.9662 C.ar      1 ATP         0.4438
     24 N7          0.9316    0.5623   -4.1260 N.2       1 ATP        -0.6280
     25 C5         -0.4120    0.7884   -4.0344 C.ar      1 ATP         0.2109
     26 C6         -1.4353    0.5283   -5.0204 C.ar      1 ATP         0.6180
     27 N6         -1.1199    0.0176   -6.1586 N.2       1 ATP        -0.8319
     28 N1         -2.6704    0.9095   -4.5147 N.pl3     1 ATP        -0.8664
     29 C2         -2.8863    1.4571   -3.2520 C.ar      1 ATP         0.5952
     30 N3         -1.9805    1.7017   -2.3442 N.2       1 ATP        -0.5599
     31 C4         -0.7561    1.3381   -2.8112 C.ar      1 ATP         0.0076
     32 HOG3        8.4126    0.0191    5.6124 H         1 ATP         0.4101
     33 H5'1        4.3028    1.6728   -0.8066 H         1 ATP         0.0364
     34 H5'2        4.5677    1.2738    0.9106 H         1 ATP         0.0364
     35 H4'         2.3752    2.7029    1.3156 H         1 ATP         0.0945
     36 H3'         2.4336   -0.1217   -0.0015 H         1 ATP         0.0703
     37 HO3'        1.7160   -0.6716    2.0397 H         1 ATP         0.4099
     38 H2'         0.0316    0.0155   -0.0339 H         1 ATP         0.0676
     39 HO2'       -0.1608    0.7921    2.1351 H         1 ATP         0.4291
     40 H1'        -0.1474    2.7798   -0.6651 H         1 ATP         0.0950
     41 H8          2.4466    0.9468   -2.6694 H         1 ATP         0.1135
     42 HN62       -1.9661   -0.0965   -6.7275 H         1 ATP         0.3588
     43 H2         -3.9481    1.6825   -3.0660 H         1 ATP         0.0302
     44 H44        -3.4814    0.7753   -5.1133 H         1 ATP         0.4215
@<TRIPOS>BOND
     1    1    2 2
     2    1    3 1
     3    1    4 1
     4    1    8 1
     5    4   32 1
     6    5    6 2
     7    5    7 1
     8    5    8 1
     9    5   12 1
    10    9   10 2
    11    9   11 1
    12    9   12 1
    13    9   13 1
    14   13   14 1
    15   14   15 1
    16   14   33 1
    17   14   34 1
    18   15   16 1
    19   15   17 1
    20   15   35 1
    21   16   21 1
    22   17   18 1
    23   17   19 1
    24   17   36 1
    25   18   37 1
    26   19   20 1
    27   19   21 1
    28   19   38 1
    29   20   39 1
    30   21   22 1
    31   21   40 1
    32   22   23 ar
    33   22   31 ar
    34   23   24 ar
    35   23   41 1
    36   24   25 ar
    37   25   26 ar
    38   25   31 ar
    39   26   27 2
    40   26   28 ar
    41   27   42 1
    42   28   29 ar
    43   28   44 1
    44   29   30 ar
    45   29   43 1
    46   30   31 ar
@<TRIPOS>SUBSTRUCTURE
     1 ATP         1 GROUP 0 A     ****
@<TRIPOS>MOLECULE
[[[3,4-dihydroxy-5-(6-imino-1~{H}-purin-9-yl)tetrahydrofuran-2-yl]methoxy-oxido-phosphoryl]oxy-oxido-phosphoryl] hydrogen phosphate
   44    46     1     0     0
SMALL
USER_CHARGES

@<TRIPOS>ATOM
      1 PG         -3.9248    6.0515   -2.6076 P.3       1 ATP         1.5257
      2 O1G        -2.7053    6.9188   -2.8270 O.co2     1 ATP        -0.8737
      3 O2G        -5.2882    6.6686   -2.3885 O.co2     1 ATP        -0.8737
      4 O3G        -4.0305    4.9842   -3.8388 O.3       1 ATP        -0.7971
      5 PB         -4.5113    3.7495   -0.8468 P.3       1 ATP         1.6824
      6 O1B        -5.7748    4.2940   -0.2186 O.co2     1 ATP        -0.8925
      7 O2B        -4.5659    2.6849   -1.9197 O.co2     1 ATP        -0.8925
      8 O3B        -3.6187    5.0013   -1.3964 O.3       1 ATP        -0.8047
      9 PA         -2.9646    4.0418    1.6587 P.3       1 ATP         1.5908
     10 O1A        -4.1353    4.3308    2.5732 O.co2     1 ATP        -0.8932
     11 O2A        -2.0512    5.1559    1.1958 O.co2     1 ATP        -0.8932
     12 O3A        -3.5115    3.2453    0.3410 O.3       1 ATP        -0.8088
     13 O5'        -2.0401    2.8620    2.3128 O.3       1 ATP        -0.5646
     14 C5'        -0.8811    2.4285    1.6206 C.3       1 ATP         0.2204
     15 C4'        -0.1994    1.3333    2.4288 C.3       1 ATP         0.0965
     16 O4'        -1.1285    0.2356    2.5840 O.3       1 ATP        -0.3907
     17 C3'         1.0324    0.7610    1.7344 C.3       1 ATP         0.0763
     18 O3'         1.9175    0.2377    2.7247 O.3       1 ATP        -0.5884
     19 C2'         0.4468   -0.3802    0.9263 C.3       1 ATP         0.0784
     20 O2'         1.3993   -1.3703    0.5961 O.3       1 ATP        -0.6085
     21 C1'        -0.6159   -0.9100    1.8769 C.3       1 ATP         0.2186
     22 N9         -1.7127   -1.6108    1.2130 N.pl3     1 ATP        -0.1699
     23 C8         -1.5982   -2.7455    0.4481 C.ar      1 ATP         0.4438
     24 N7         -2.7593   -3.1533   -0.0249 N.2       1 ATP        -0.6280
     25 C5         -3.6547   -2.2420    0.4573 C.ar      1 ATP         0.2109
     26 C6         -5.0842   -2.1942    0.2543 C.ar      1 ATP         0.6180
     27 N6         -5.6648   -3.0919   -0.4618 N.2       1 ATP        -0.8319
     28 N1         -5.6087   -1.0978    0.9248 N.pl3     1 ATP        -0.8664
     29 C2         -4.8689   -0.1873    1.6760 C.ar      1 ATP         0.5952
     30 N3         -3.5787   -0.2081    1.8745 N.2       1 ATP        -0.5599
     31 C4         -3.0344   -1.2737    1.2284 C.ar      1 ATP         0.0076
     32 HOG3       -4.7756    4.3462   -3.8409 H         1 ATP         0.4101
     33 H5'1       -1.1767    2.0502    0.6368 H         1 ATP         0.0364
     34 H5'2       -0.2080    3.2814    1.4876 H         1 ATP         0.0364
     35 H4'         0.0403    1.7078    3.4343 H         1 ATP         0.0945
     36 H3'         1.5907    1.4859    1.1353 H         1 ATP         0.0703
     37 HO3'        2.6839   -0.1150    2.2479 H         1 ATP         0.4099
     38 H2'        -0.0017    0.0018    0.0005 H         1 ATP         0.0676
     39 HO2'        2.0953   -0.9375    0.0709 H         1 ATP         0.4291
     40 H1'        -0.1998   -1.6319    2.6178 H         1 ATP         0.0950
     41 H8         -0.6448   -3.2254    0.2735 H         1 ATP         0.1135
     42 HN62       -6.6723   -2.9015   -0.4966 H         1 ATP         0.3588
     43 H2         -5.4961    0.6026    2.1183 H         1 ATP         0.0302
     44 H44        -6.6130   -0.9504    0.8642 H         1 ATP         0.4215
@<TRIPOS>BOND
     1    1    2 2
     2    1    3 1
     3    1    4 1
     4    1    8 1
     5    4   32 1
     6    5    6 2
     7    5    7 1
     8    5    8 1
     9    5   12 1
    10    9   10 2
    11    9   11 1
    12    9   12 1
    13    9   13 1
    14   13   14 1
    15   14   15 1
    16   14   33 1
    17   14   34 1
    18   15   16 1
    19   15   17 1
    20   15   35 1
    21   16   21 1
    22   17   18 1
    23   17   19 1
    24   17   36 1
    25   18   37 1
    26   19   20 1
    27   19   21 1
    28   19   38 1
    29   20   39 1
    30   21   22 1
    31   21   40 1
    32   22   23 ar
    33   22   31 ar
    34   23   24 ar
    35   23   41 1
    36   24   25 ar
    37   25   26 ar
    38   25   31 ar
    39   26   27 2
    40   26   28 ar
    41   27   42 1
    42   28   29 ar
    43   28   44 1
    44   29   30 ar
    45   29   43 1
    46   30   31 ar
@<TRIPOS>SUBSTRUCTURE
     1 ATP         1 GROUP 0 A     ****
@<TRIPOS>MOLECULE
[[[3,4-dihydroxy-5-(6-imino-1~{H}-purin-9-yl)tetrahydrofuran-2-yl]methoxy-oxido-phosphoryl]oxy-oxido-phosphoryl] hydrogen phosphate
   44    46     1     0     0
SMALL
USER_CHARGES

@<TRIPOS>ATOM
      1 PG         -2.4245    7.5665   -0.8674 P.3       1 ATP         1.5257
      2 O1G        -1.3503    7.8102    0.1690 O.co2     1 ATP        -0.8737
      3 O2G        -3.7550    8.2818   -0.7910 O.co2     1 ATP        -0.8737
      4 O3G        -1.7839    7.8199   -2.3478 O.3       1 ATP        -0.7971
      5 PB         -3.3314    4.9239    0.1010 P.3       1 ATP         1.6824
      6 O1B        -4.6637    5.4680    0.5659 O.co2     1 ATP        -0.8925
      7 O2B        -3.2053    3.5168   -0.4391 O.co2     1 ATP        -0.8925
      8 O3B        -2.6932    5.9611   -0.9865 O.3       1 ATP        -0.8047
      9 PA         -2.1561    4.4278    2.7707 P.3       1 ATP         1.5908
     10 O1A        -3.4710    4.6479    3.4867 O.co2     1 ATP        -0.8932
     11 O2A        -0.8475    4.8296    3.4155 O.co2     1 ATP        -0.8932
     12 O3A        -2.2377    5.1262    1.2959 O.3       1 ATP        -0.8088
     13 O5'        -2.0401    2.8620    2.3128 O.3       1 ATP        -0.5646
     14 C5'        -0.8811    2.4285    1.6206 C.3       1 ATP         0.2204
     15 C4'        -0.1994    1.3333    2.4288 C.3       1 ATP         0.0965
     16 O4'        -1.1285    0.2356    2.5840 O.3       1 ATP        -0.3907
     17 C3'         1.0324    0.7610    1.7344 C.3       1 ATP         0.0763
     18 O3'         1.9175    0.2377    2.7247 O.3       1 ATP        -0.5884
     19 C2'         0.4468   -0.3802    0.9263 C.3       1 ATP         0.0784
     20 O2'         1.3993   -1.3703    0.5961 O.3       1 ATP        -0.6085
     21 C1'        -0.6159   -0.9100    1.8769 C.3       1 ATP         0.2186
     22 N9         -1.7127   -1.6108    1.2130 N.pl3     1 ATP        -0.1699
     23 C8         -2.5485   -1.0808    0.2609 C.ar      1 ATP         0.4438
     24 N7         -3.4476   -1.9486   -0.1593 N.2       1 ATP        -0.6280
     25 C5         -3.1762   -3.0816    0.5530 C.ar      1 ATP         0.2109
     26 C6         -3.8510   -4.3579    0.5006 C.ar      1 ATP         0.6180
     27 N6         -4.8468   -4.5293   -0.2961 N.2       1 ATP        -0.8319
     28 N1         -3.2499   -5.2342    1.3937 N.pl3     1 ATP        -0.8664
     29 C2         -2.1646   -4.9275    2.2116 C.ar      1 ATP         0.5952
     30 N3         -1.5382   -3.7840    2.2778 N.2       1 ATP        -0.5599
     31 C4         -2.1054   -2.9018    1.4120 C.ar      1 ATP         0.0076
     32 HOG3       -2.3603    7.7008   -3.1326 H         1 ATP         0.4101
     33 H5'1       -1.1767    2.0502    0.6368 H         1 ATP         0.0364
     34 H5'2       -0.2080    3.2814    1.4876 H         1 ATP         0.0364
     35 H4'         0.0403    1.7078    3.4343 H         1 ATP         0.0945
     36 H3'         1.5907    1.4859    1.1353 H         1 ATP         0.0703
     37 HO3'        2.6839   -0.1150    2.2479 H         1 ATP         0.4099
     38 H2'        -0.0017    0.0018    0.0005 H         1 ATP         0.0676
     39 HO2'        2.0953   -0.9375    0.0709 H         1 ATP         0.4291
     40 H1'        -0.1998   -1.6319    2.6178 H         1 ATP         0.0950
     41 H8         -2.4515   -0.0599   -0.0829 H         1 ATP         0.1135
     42 HN62       -5.1990   -5.4882   -0.2005 H         1 ATP         0.3588
     43 H2         -1.8555   -5.7783    2.8388 H         1 ATP         0.0302
     44 H44        -3.6312   -6.1750    1.4526 H         1 ATP         0.4215
@<TRIPOS>BOND
     1    1    2 2
     2    1    3 1
     3    1    4 1
     4    1    8 1
     5    4   32 1
     6    5    6 2
     7    5    7 1
     8    5    8 1
     9    5   12 1
    10    9   10 2
    11    9   11 1
    12    9   12 1
    13    9   13 1
    14   13   14 1
    15   14   15 1
    16   14   33 1
    17   14   34 1
    18   15   16 1
    19   15   17 1
    20   15   35 1
    21   16   21 1
    22   17   18 1
    23   17   19 1
    24   17   36 1
    25   18   37 1
    26   19   20 1
    27   19   21 1
    28   19   38 1
    29   20   39 1
    30   21   22 1
    31   21   40 1
    32   22   23 ar
    33   22   31 ar
    34   23   24 ar
    35   23   41 1
    36   24   25 ar
    37   25   26 ar
    38   25   31 ar
    39   26   27 2
    40   26   28 ar
    41   27   42 1
    42   28   29 ar
    43   28   44 1
    44   29   30 ar
    45   29   43 1
    46   30   31 ar
@<TRIPOS>SUBSTRUCTURE
     1 ATP         1 GROUP 0 A     ****
@<TRIPOS>MOLECULE
[[[3,4-dihydroxy-5-(6-imino-1~{H}-purin-9-yl)tetrahydrofuran-2-yl]methoxy-oxido-phosphoryl]oxy-oxido-phosphoryl] hydrogen phosphate
   44    46     1     0     0
SMALL
USER_CHARGES

@<TRIPOS>ATOM
      1 PG         -4.4373    7.4479    0.3519 P.3       1 ATP         1.5257
      2 O1G        -4.9313    6.5551   -0.7645 O.co2     1 ATP        -0.8737
      3 O2G        -3.9374    8.8464    0.0653 O.co2     1 ATP        -0.8737
      4 O3G        -5.5977    7.5367    1.4970 O.3       1 ATP        -0.7971
      5 PB         -1.8095    6.1585    0.7708 P.3       1 ATP         1.6824
      6 O1B        -1.9418    5.0848   -0.2862 O.co2     1 ATP        -0.8925
      7 O2B        -0.9477    7.3803    0.5428 O.co2     1 ATP        -0.8925
      8 O3B        -3.3040    6.6468    1.2107 O.3       1 ATP        -0.8047
      9 PA          0.0330    4.7083    2.5757 P.3       1 ATP         1.5908
     10 O1A        -0.1146    4.1098    3.9578 O.co2     1 ATP        -0.8932
     11 O2A         1.1815    5.6399    2.2548 O.co2     1 ATP        -0.8932
     12 O3A        -1.3630    5.4574    2.1758 O.3       1 ATP        -0.8088
     13 O5'         0.0178    3.5131    1.4595 O.3       1 ATP        -0.5646
     14 C5'        -0.8811    2.4285    1.6206 C.3       1 ATP         0.2204
     15 C4'        -0.1994    1.3333    2.4288 C.3       1 ATP         0.0965
     16 O4'        -1.1285    0.2356    2.5840 O.3       1 ATP        -0.3907
     17 C3'         1.0324    0.7610    1.7344 C.3       1 ATP         0.0763
     18 O3'         1.9175    0.2377    2.7247 O.3       1 ATP        -0.5884
     19 C2'         0.4468   -0.3802    0.9263 C.3       1 ATP         0.0784
     20 O2'         1.3993   -1.3703    0.5961 O.3       1 ATP        -0.6085
     21 C1'        -0.6159   -0.9100    1.8769 C.3       1 ATP         0.2186
     22 N9         -1.7127   -1.6108    1.2130 N.pl3     1 ATP        -0.1699
     23 C8         -2.8662   -1.0361    0.7388 C.ar      1 ATP         0.4438
     24 N7         -3.6774   -1.9166    0.1867 N.2       1 ATP        -0.6280
     25 C5         -3.0159   -3.1045    0.3122 C.ar      1 ATP         0.2109
     26 C6         -3.4377   -4.4169   -0.1199 C.ar      1 ATP         0.6180
     27 N6         -4.5720   -4.5691   -0.7080 N.2       1 ATP        -0.8319
     28 N1         -2.4600   -5.3463    0.2071 N.pl3     1 ATP        -0.8664
     29 C2         -1.2595   -5.0554    0.8515 C.ar      1 ATP         0.5952
     30 N3         -0.8555   -3.8803    1.2516 N.2       1 ATP        -0.5599
     31 C4         -1.7946   -2.9457    0.9448 C.ar      1 ATP         0.0076
     32 HOG3       -5.4270    8.0835    2.2934 H         1 ATP         0.4101
     33 H5'1       -1.7771    2.7849    2.1387 H         1 ATP         0.0364
     34 H5'2       -1.1654    2.0541    0.6320 H         1 ATP         0.0364
     35 H4'         0.0403    1.7078    3.4343 H         1 ATP         0.0945
     36 H3'         1.5907    1.4859    1.1353 H         1 ATP         0.0703
     37 HO3'        2.6839   -0.1150    2.2479 H         1 ATP         0.4099
     38 H2'        -0.0017    0.0018    0.0005 H         1 ATP         0.0676
     39 HO2'        2.0953   -0.9375    0.0709 H         1 ATP         0.4291
     40 H1'        -0.1998   -1.6319    2.6178 H         1 ATP         0.0950
     41 H8         -3.0558    0.0252    0.8256 H         1 ATP         0.1135
     42 HN62       -4.7047   -5.5592   -0.9421 H         1 ATP         0.3588
     43 H2         -0.6372   -5.9505    1.0077 H         1 ATP         0.0302
     44 H44        -2.6338   -6.3155   -0.0469 H         1 ATP         0.4215
@<TRIPOS>BOND
     1    1    2 2
     2    1    3 1
     3    1    4 1
     4    1    8 1
     5    4   32 1
     6    5    6 2
     7    5    7 1
     8    5    8 1
     9    5   12 1
    10    9   10 2
    11    9   11 1
    12    9   12 1
    13    9   13 1
    14   13   14 1
    15   14   15 1
    16   14   33 1
    17   14   34 1
    18   15   16 1
    19   15   17 1
    20   15   35 1
    21   16   21 1
    22   17   18 1
    23   17   19 1
    24   17   36 1
    25   18   37 1
    26   19   20 1
    27   19   21 1
    28   19   38 1
    29   20   39 1
    30   21   22 1
    31   21   40 1
    32   22   23 ar
    33   22   31 ar
    34   23   24 ar
    35   23   41 1
    36   24   25 ar
    37   25   26 ar
    38   25   31 ar
    39   26   27 2
    40   26   28 ar
    41   27   42 1
    42   28   29 ar
    43   28   44 1
    44   29   30 ar
    45   29   43 1
    46   30   31 ar
@<TRIPOS>SUBSTRUCTURE
     1 ATP         1 GROUP 0 A     ****
@<TRIPOS>MOLECULE
[[[3,4-dihydroxy-5-(6-imino-1~{H}-purin-9-yl)tetrahydrofuran-2-yl]methoxy-oxido-phosphoryl]oxy-oxido-phosphoryl] hydrogen phosphate
   44    46     1     0     0
SMALL
USER_CHARGES

@<TRIPOS>ATOM
      1 PG         -5.2155    3.1578   -2.9564 P.3       1 ATP         1.5257
      2 O1G        -5.4238    1.8688   -3.7197 O.co2     1 ATP        -0.8737
      3 O2G        -4.4986    4.3292   -3.5902 O.co2     1 ATP        -0.8737
      4 O3G        -6.6629    3.6731   -2.4039 O.3       1 ATP        -0.7971
      5 PB         -4.9619    1.7667   -0.3595 P.3       1 ATP         1.6824
      6 O1B        -6.2579    2.2482    0.2537 O.co2     1 ATP        -0.8925
      7 O2B        -4.8252    0.3599   -0.8978 O.co2     1 ATP        -0.8925
      8 O3B        -4.5111    2.8188   -1.5237 O.3       1 ATP        -0.8047
      9 PA         -3.3161    3.4234    1.4576 P.3       1 ATP         1.5908
     10 O1A        -4.4240    3.8228    2.4080 O.co2     1 ATP        -0.8932
     11 O2A        -2.7985    4.3960    0.4204 O.co2     1 ATP        -0.8932
     12 O3A        -3.7485    2.0435    0.6969 O.3       1 ATP        -0.8088
     13 O5'        -2.0401    2.8620    2.3128 O.3       1 ATP        -0.5646
     14 C5'        -0.8811    2.4285    1.6206 C.3       1 ATP         0.2204
     15 C4'        -0.1994    1.3333    2.4288 C.3       1 ATP         0.0965
     16 O4'        -1.1285    0.2356    2.5840 O.3       1 ATP        -0.3907
     17 C3'         1.0324    0.7610    1.7344 C.3       1 ATP         0.0763
     18 O3'         1.9175    0.2377    2.7247 O.3       1 ATP        -0.5884
     19 C2'         0.4468   -0.3802    0.9263 C.3       1 ATP         0.0784
     20 O2'         1.3993   -1.3703    0.5961 O.3       1 ATP        -0.6085
     21 C1'        -0.6159   -0.9100    1.8769 C.3       1 ATP         0.2186
     22 N9         -1.7127   -1.6108    1.2130 N.pl3     1 ATP        -0.1699
     23 C8         -3.0370   -1.2489    1.2455 C.ar      1 ATP         0.4438
     24 N7         -3.8008   -2.0709    0.5534 N.2       1 ATP        -0.6280
     25 C5         -2.9295   -2.9976    0.0567 C.ar      1 ATP         0.2109
     26 C6         -3.2152   -4.1411   -0.7786 C.ar      1 ATP         0.6180
     27 N6         -4.4238   -4.3865   -1.1456 N.2       1 ATP        -0.8319
     28 N1         -2.0349   -4.8186   -1.0521 N.pl3     1 ATP        -0.8664
     29 C2         -0.7728   -4.4501   -0.5916 C.ar      1 ATP         0.5952
     30 N3         -0.4885   -3.4234    0.1630 N.2       1 ATP        -0.5599
     31 C4         -1.6274   -2.7377    0.4492 C.ar      1 ATP         0.0076
     32 HOG3       -6.6952    4.5047   -1.8845 H         1 ATP         0.4101
     33 H5'1       -1.1767    2.0502    0.6368 H         1 ATP         0.0364
     34 H5'2       -0.2080    3.2814    1.4876 H         1 ATP         0.0364
     35 H4'         0.0403    1.7078    3.4343 H         1 ATP         0.0945
     36 H3'         1.5907    1.4859    1.1353 H         1 ATP         0.0703
     37 HO3'        2.6839   -0.1150    2.2479 H         1 ATP         0.4099
     38 H2'        -0.0017    0.0018    0.0005 H         1 ATP         0.0676
     39 HO2'        2.0953   -0.9375    0.0709 H         1 ATP         0.4291
     40 H1'        -0.1998   -1.6319    2.6178 H         1 ATP         0.0950
     41 H8         -3.3806   -0.3795    1.7893 H         1 ATP         0.1135
     42 HN62       -4.4384   -5.2300   -1.7295 H         1 ATP         0.3588
     43 H2          0.0180   -5.1355   -0.9348 H         1 ATP         0.0302
     44 H44        -2.0977   -5.6477   -1.6374 H         1 ATP         0.4215
@<TRIPOS>BOND
     1    1    2 2
     2    1    3 1
     3    1    4 1
     4    1    8 1
     5    4   32 1
     6    5    6 2
     7    5    7 1
     8    5    8 1
     9    5   12 1
    10    9   10 2
    11    9   11 1
    12    9   12 1
    13    9   13 1
    14   13   14 1
    15   14   15 1
    16   14   33 1
    17   14   34 1
    18   15   16 1
    19   15   17 1
    20   15   35 1
    21   16   21 1
    22   17   18 1
    23   17   19 1
    24   17   36 1
    25   18   37 1
    26   19   20 1
    27   19   21 1
    28   19   38 1
    29   20   39 1
    30   21   22 1
    31   21   40 1
    32   22   23 ar
    33   22   31 ar
    34   23   24 ar
    35   23   41 1
    36   24   25 ar
    37   25   26 ar
    38   25   31 ar
    39   26   27 2
    40   26   28 ar
    41   27   42 1
    42   28   29 ar
    43   28   44 1
    44   29   30 ar
    45   29   43 1
    46   30   31 ar
@<TRIPOS>SUBSTRUCTURE
     1 ATP         1 GROUP 0 A     ****
@<TRIPOS>MOLECULE
[[[3,4-dihydroxy-5-(6-imino-1~{H}-purin-9-yl)tetrahydrofuran-2-yl]methoxy-oxido-phosphoryl]oxy-oxido-phosphoryl] hydrogen phosphate
   44    46     1     0     0
SMALL
USER_CHARGES

@<TRIPOS>ATOM
      1 PG         -2.5659    7.9088   -1.1785 P.3       1 ATP         1.5257
      2 O1G        -3.7837    8.7257   -0.8084 O.co2     1 ATP        -0.8737
      3 O2G        -2.4392    7.2788   -2.5477 O.co2     1 ATP        -0.8737
      4 O3G        -1.2327    8.8082   -0.8963 O.3       1 ATP        -0.7971
      5 PB         -2.2058    6.9006    1.5779 P.3       1 ATP         1.6824
      6 O1B        -0.9325    7.6501    1.9011 O.co2     1 ATP        -0.8925
      7 O2B        -3.5403    7.3483    2.1313 O.co2     1 ATP        -0.8925
      8 O3B        -2.3325    6.7592   -0.0437 O.3       1 ATP        -0.8047
      9 PA         -2.9646    4.0418    1.6587 P.3       1 ATP         1.5908
     10 O1A        -3.0699    3.8298    0.1639 O.co2     1 ATP        -0.8932
     11 O2A        -4.2078    4.1934    2.5079 O.co2     1 ATP        -0.8932
     12 O3A        -1.9910    5.3235    1.9402 O.3       1 ATP        -0.8088
     13 O5'        -2.0401    2.8620    2.3128 O.3       1 ATP        -0.5646
     14 C5'        -0.8811    2.4285    1.6206 C.3       1 ATP         0.2204
     15 C4'        -0.1994    1.3333    2.4288 C.3       1 ATP         0.0965
     16 O4'        -1.1285    0.2356    2.5840 O.3       1 ATP        -0.3907
     17 C3'         1.0324    0.7610    1.7344 C.3       1 ATP         0.0763
     18 O3'         1.9175    0.2377    2.7247 O.3       1 ATP        -0.5884
     19 C2'         0.4468   -0.3802    0.9263 C.3       1 ATP         0.0784
     20 O2'         1.3993   -1.3703    0.5961 O.3       1 ATP        -0.6085
     21 C1'        -0.6159   -0.9100    1.8769 C.3       1 ATP         0.2186
     22 N9         -1.7127   -1.6108    1.2130 N.pl3     1 ATP        -0.1699
     23 C8         -2.5485   -1.0808    0.2609 C.ar      1 ATP         0.4438
     24 N7         -3.4476   -1.9486   -0.1593 N.2       1 ATP        -0.6280
     25 C5         -3.1762   -3.0816    0.5530 C.ar      1 ATP         0.2109
     26 C6         -3.8510   -4.3579    0.5006 C.ar      1 ATP         0.6180
     27 N6         -4.8468   -4.5293   -0.2961 N.2       1 ATP        -0.8319
     28 N1         -3.2499   -5.2342    1.3937 N.pl3     1 ATP        -0.8664
     29 C2         -2.1646   -4.9275    2.2116 C.ar      1 ATP         0.5952
     30 N3         -1.5382   -3.7840    2.2778 N.2       1 ATP        -0.5599
     31 C4         -2.1054   -2.9018    1.4120 C.ar      1 ATP         0.0076
     32 HOG3       -1.0671    9.1236    0.0177 H         1 ATP         0.4101
     33 H5'1       -1.1767    2.0502    0.6368 H         1 ATP         0.0364
     34 H5'2       -0.2080    3.2814    1.4876 H         1 ATP         0.0364
     35 H4'         0.0403    1.7078    3.4343 H         1 ATP         0.0945
     36 H3'         1.5907    1.4859    1.1353 H         1 ATP         0.0703
     37 HO3'        2.6839   -0.1150    2.2479 H         1 ATP         0.4099
     38 H2'        -0.0017    0.0018    0.0005 H         1 ATP         0.0676
     39 HO2'        2.0953   -0.9375    0.0709 H         1 ATP         0.4291
     40 H1'        -0.1998   -1.6319    2.6178 H         1 ATP         0.0950
     41 H8         -2.4515   -0.0599   -0.0829 H         1 ATP         0.1135
     42 HN62       -5.1990   -5.4882   -0.2005 H         1 ATP         0.3588
     43 H2         -1.8555   -5.7783    2.8388 H         1 ATP         0.0302
     44 H44        -3.6312   -6.1750    1.4526 H         1 ATP         0.4215
@<TRIPOS>BOND
     1    1    2 2
     2    1    3 1
     3    1    4 1
     4    1    8 1
     5    4   32 1
     6    5    6 2
     7    5    7 1
     8    5    8 1
     9    5   12 1
    10    9   10 2
    11    9   11 1
    12    9   12 1
    13    9   13 1
    14   13   14 1
    15   14   15 1
    16   14   33 1
    17   14   34 1
    18   15   16 1
    19   15   17 1
    20   15   35 1
    21   16   21 1
    22   17   18 1
    23   17   19 1
    24   17   36 1
    25   18   37 1
    26   19   20 1
    27   19   21 1
    28   19   38 1
    29   20   39 1
    30   21   22 1
    31   21   40 1
    32   22   23 ar
    33   22   31 ar
    34   23   24 ar
    35   23   41 1
    36   24   25 ar
    37   25   26 ar
    38   25   31 ar
    39   26   27 2
    40   26   28 ar
    41   27   42 1
    42   28   29 ar
    43   28   44 1
    44   29   30 ar
    45   29   43 1
    46   30   31 ar
@<TRIPOS>SUBSTRUCTURE
     1 ATP         1 GROUP 0 A     ****
@<TRIPOS>MOLECULE
[[[3,4-dihydroxy-5-(6-imino-1~{H}-purin-9-yl)tetrahydrofuran-2-yl]methoxy-oxido-phosphoryl]oxy-oxido-phosphoryl] hydrogen phosphate
   44    46     1     0     0
SMALL
USER_CHARGES

@<TRIPOS>ATOM
      1 PG         -1.4517    7.2150    6.6304 P.3       1 ATP         1.5257
      2 O1G        -1.5968    8.5785    5.9923 O.co2     1 ATP        -0.8737
      3 O2G        -0.3954    6.9572    7.6818 O.co2     1 ATP        -0.8737
      4 O3G        -2.9020    6.7668    7.2319 O.3       1 ATP        -0.7971
      5 PB         -0.1155    5.8502    4.3731 P.3       1 ATP         1.6824
      6 O1B        -0.0787    7.0250    3.4214 O.co2     1 ATP        -0.8925
      7 O2B         1.1249    5.4035    5.1145 O.co2     1 ATP        -0.8925
      8 O3B        -1.3140    6.0906    5.4554 O.3       1 ATP        -0.8047
      9 PA         -2.1561    4.4278    2.7707 P.3       1 ATP         1.5908
     10 O1A        -2.0925    5.3170    1.5478 O.co2     1 ATP        -0.8932
     11 O2A        -3.2978    4.5484    3.7564 O.co2     1 ATP        -0.8932
     12 O3A        -0.7509    4.5646    3.5932 O.3       1 ATP        -0.8088
     13 O5'        -2.0401    2.8620    2.3128 O.3       1 ATP        -0.5646
     14 C5'        -0.8811    2.4285    1.6206 C.3       1 ATP         0.2204
     15 C4'        -0.1994    1.3333    2.4288 C.3       1 ATP         0.0965
     16 O4'        -1.1285    0.2356    2.5840 O.3       1 ATP        -0.3907
     17 C3'         1.0324    0.7610    1.7344 C.3       1 ATP         0.0763
     18 O3'         1.9175    0.2377    2.7247 O.3       1 ATP        -0.5884
     19 C2'         0.4468   -0.3802    0.9263 C.3       1 ATP         0.0784
     20 O2'         1.3993   -1.3703    0.5961 O.3       1 ATP        -0.6085
     21 C1'        -0.6159   -0.9100    1.8769 C.3       1 ATP         0.2186
     22 N9         -1.7127   -1.6108    1.2130 N.pl3     1 ATP        -0.1699
     23 C8         -1.7690   -2.9583    0.9549 C.ar      1 ATP         0.4438
     24 N7         -2.8827   -3.3076    0.3418 N.2       1 ATP        -0.6280
     25 C5         -3.5683   -2.1351    0.2017 C.ar      1 ATP         0.2109
     26 C6         -4.8617   -1.9185   -0.4044 C.ar      1 ATP         0.6180
     27 N6         -5.5166   -2.9094   -0.8993 N.2       1 ATP        -0.8319
     28 N1         -5.1837   -0.5701   -0.3344 N.pl3     1 ATP        -0.8664
     29 C2         -4.3821    0.4180    0.2330 C.ar      1 ATP         0.5952
     30 N3         -3.2117    0.2488    0.7860 N.2       1 ATP        -0.5599
     31 C4         -2.8672   -1.0657    0.7327 C.ar      1 ATP         0.0076
     32 HOG3       -2.9727    5.8977    7.6813 H         1 ATP         0.4101
     33 H5'1       -1.1767    2.0502    0.6368 H         1 ATP         0.0364
     34 H5'2       -0.2080    3.2814    1.4876 H         1 ATP         0.0364
     35 H4'         0.0403    1.7078    3.4343 H         1 ATP         0.0945
     36 H3'         1.5907    1.4859    1.1353 H         1 ATP         0.0703
     37 HO3'        2.6839   -0.1150    2.2479 H         1 ATP         0.4099
     38 H2'        -0.0017    0.0018    0.0005 H         1 ATP         0.0676
     39 HO2'        2.0953   -0.9375    0.0709 H         1 ATP         0.4291
     40 H1'        -0.1998   -1.6319    2.6178 H         1 ATP         0.0950
     41 H8         -0.9697   -3.6300    1.2371 H         1 ATP         0.1135
     42 HN62       -6.4060   -2.5723   -1.2840 H         1 ATP         0.3588
     43 H2         -4.8409    1.4176    0.1757 H         1 ATP         0.0302
     44 H44        -6.0768   -0.2826   -0.7263 H         1 ATP         0.4215
@<TRIPOS>BOND
     1    1    2 2
     2    1    3 1
     3    1    4 1
     4    1    8 1
     5    4   32 1
     6    5    6 2
     7    5    7 1
     8    5    8 1
     9    5   12 1
    10    9   10 2
    11    9   11 1
    12    9   12 1
    13    9   13 1
    14   13   14 1
    15   14   15 1
    16   14   33 1
    17   14   34 1
    18   15   16 1
    19   15   17 1
    20   15   35 1
    21   16   21 1
    22   17   18 1
    23   17   19 1
    24   17   36 1
    25   18   37 1
    26   19   20 1
    27   19   21 1
    28   19   38 1
    29   20   39 1
    30   21   22 1
    31   21   40 1
    32   22   23 ar
    33   22   31 ar
    34   23   24 ar
    35   23   41 1
    36   24   25 ar
    37   25   26 ar
    38   25   31 ar
    39   26   27 2
    40   26   28 ar
    41   27   42 1
    42   28   29 ar
    43   28   44 1
    44   29   30 ar
    45   29   43 1
    46   30   31 ar
@<TRIPOS>SUBSTRUCTURE
     1 ATP         1 GROUP 0 A     ****
@<TRIPOS>MOLECULE
[[[3,4-dihydroxy-5-(6-imino-1~{H}-purin-9-yl)tetrahydrofuran-2-yl]methoxy-oxido-phosphoryl]oxy-oxido-phosphoryl] hydrogen phosphate
   44    46     1     0     0
SMALL
USER_CHARGES

@<TRIPOS>ATOM
      1 PG         -3.3006    6.9846    5.3160 P.3       1 ATP         1.5257
      2 O1G        -3.4203    6.5171    6.7494 O.co2     1 ATP        -0.8737
      3 O2G        -4.5295    7.1728    4.4546 O.co2     1 ATP        -0.8737
      4 O3G        -2.4341    8.3683    5.2924 O.3       1 ATP        -0.7971
      5 PB         -0.7129    5.6110    4.9154 P.3       1 ATP         1.6824
      6 O1B         0.1567    6.8447    4.8192 O.co2     1 ATP        -0.8925
      7 O2B        -0.7379    4.7660    6.1696 O.co2     1 ATP        -0.8925
      8 O3B        -2.2456    6.0195    4.5289 O.3       1 ATP        -0.8047
      9 PA         -0.3962    4.9846    2.0409 P.3       1 ATP         1.5908
     10 O1A         0.7136    5.9719    1.7515 O.co2     1 ATP        -0.8932
     11 O2A        -1.8200    5.2757    1.6193 O.co2     1 ATP        -0.8932
     12 O3A        -0.3932    4.6446    3.6391 O.3       1 ATP        -0.8088
     13 O5'         0.0178    3.5131    1.4595 O.3       1 ATP        -0.5646
     14 C5'        -0.8811    2.4285    1.6206 C.3       1 ATP         0.2204
     15 C4'        -0.1994    1.3333    2.4288 C.3       1 ATP         0.0965
     16 O4'        -1.1285    0.2356    2.5840 O.3       1 ATP        -0.3907
     17 C3'         1.0324    0.7610    1.7344 C.3       1 ATP         0.0763
     18 O3'         1.9175    0.2377    2.7247 O.3       1 ATP        -0.5884
     19 C2'         0.4468   -0.3802    0.9263 C.3       1 ATP         0.0784
     20 O2'         1.3993   -1.3703    0.5961 O.3       1 ATP        -0.6085
     21 C1'        -0.6159   -0.9100    1.8769 C.3       1 ATP         0.2186
     22 N9         -1.7127   -1.6108    1.2130 N.pl3     1 ATP        -0.1699
     23 C8         -2.8662   -1.0361    0.7388 C.ar      1 ATP         0.4438
     24 N7         -3.6774   -1.9166    0.1867 N.2       1 ATP        -0.6280
     25 C5         -3.0159   -3.1045    0.3122 C.ar      1 ATP         0.2109
     26 C6         -3.4377   -4.4169   -0.1199 C.ar      1 ATP         0.6180
     27 N6         -4.5720   -4.5691   -0.7080 N.2       1 ATP        -0.8319
     28 N1         -2.4600   -5.3463    0.2071 N.pl3     1 ATP        -0.8664
     29 C2         -1.2595   -5.0554    0.8515 C.ar      1 ATP         0.5952
     30 N3         -0.8555   -3.8803    1.2516 N.2       1 ATP        -0.5599
     31 C4         -1.7946   -2.9457    0.9448 C.ar      1 ATP         0.0076
     32 HOG3       -2.2676    8.8002    4.4276 H         1 ATP         0.4101
     33 H5'1       -1.7771    2.7849    2.1387 H         1 ATP         0.0364
     34 H5'2       -1.1654    2.0541    0.6320 H         1 ATP         0.0364
     35 H4'         0.0403    1.7078    3.4343 H         1 ATP         0.0945
     36 H3'         1.5907    1.4859    1.1353 H         1 ATP         0.0703
     37 HO3'        2.6839   -0.1150    2.2479 H         1 ATP         0.4099
     38 H2'        -0.0017    0.0018    0.0005 H         1 ATP         0.0676
     39 HO2'        0.9369   -2.0558    0.0825 H         1 ATP         0.4291
     40 H1'        -0.1998   -1.6319    2.6178 H         1 ATP         0.0950
     41 H8         -3.0558    0.0252    0.8256 H         1 ATP         0.1135
     42 HN62       -4.7047   -5.5592   -0.9421 H         1 ATP         0.3588
     43 H2         -0.6372   -5.9505    1.0077 H         1 ATP         0.0302
     44 H44        -2.6338   -6.3155   -0.0469 H         1 ATP         0.4215
@<TRIPOS>BOND
     1    1    2 2
     2    1    3 1
     3    1    4 1
     4    1    8 1
     5    4   32 1
     6    5    6 2
     7    5    7 1
     8    5    8 1
     9    5   12 1
    10    9   10 2
    11    9   11 1
    12    9   12 1
    13    9   13 1
    14   13   14 1
    15   14   15 1
    16   14   33 1
    17   14   34 1
    18   15   16 1
    19   15   17 1
    20   15   35 1
    21   16   21 1
    22   17   18 1
    23   17   19 1
    24   17   36 1
    25   18   37 1
    26   19   20 1
    27   19   21 1
    28   19   38 1
    29   20   39 1
    30   21   22 1
    31   21   40 1
    32   22   23 ar
    33   22   31 ar
    34   23   24 ar
    35   23   41 1
    36   24   25 ar
    37   25   26 ar
    38   25   31 ar
    39   26   27 2
    40   26   28 ar
    41   27   42 1
    42   28   29 ar
    43   28   44 1
    44   29   30 ar
    45   29   43 1
    46   30   31 ar
@<TRIPOS>SUBSTRUCTURE
     1 ATP         1 GROUP 0 A     ****
@<TRIPOS>MOLECULE
[[[3,4-dihydroxy-5-(6-imino-1~{H}-purin-9-yl)tetrahydrofuran-2-yl]methoxy-oxido-phosphoryl]oxy-oxido-phosphoryl] hydrogen phosphate
   44    46     1     0     0
SMALL
USER_CHARGES

@<TRIPOS>ATOM
      1 PG          8.2642    1.2482   -4.5025 P.3       1 ATP         1.5257
      2 O1G         9.1890    2.3626   -4.9388 O.co2     1 ATP        -0.8737
      3 O2G         7.6188    0.3314   -5.5177 O.co2     1 ATP        -0.8737
      4 O3G         9.0414    0.3321   -3.3969 O.3       1 ATP        -0.7971
      5 PB          5.8926    2.9048   -3.8902 P.3       1 ATP         1.6824
      6 O1B         6.4911    4.2492   -4.2391 O.co2     1 ATP        -0.8925
      7 O2B         4.9201    2.2149   -4.8208 O.co2     1 ATP        -0.8925
      8 O3B         7.1037    1.8685   -3.5369 O.3       1 ATP        -0.8047
      9 PA          5.8655    3.5044   -0.9928 P.3       1 ATP         1.5908
     10 O1A         6.1809    4.9807   -1.1004 O.co2     1 ATP        -0.8932
     11 O2A         6.9316    2.5139   -0.5781 O.co2     1 ATP        -0.8932
     12 O3A         5.2188    3.0011   -2.4064 O.3       1 ATP        -0.8088
     13 O5'         4.5670    3.2937   -0.0211 O.3       1 ATP        -0.5646
     14 C5'         4.0922    1.9801    0.2227 C.3       1 ATP         0.2204
     15 C4'         2.5944    2.0310    0.4653 C.3       1 ATP         0.0965
     16 O4'         1.9327    2.5740   -0.6889 O.3       1 ATP        -0.3907
     17 C3'         1.9685    0.6634    0.6767 C.3       1 ATP         0.0763
     18 O3'         2.1425    0.1975    1.9977 O.3       1 ATP        -0.5884
     19 C2'         0.5176    0.9128    0.3099 C.3       1 ATP         0.0784
     20 O2'        -0.2103    1.4454    1.4152 O.3       1 ATP        -0.6085
     21 C1'         0.6219    1.9765   -0.7844 C.3       1 ATP         0.2186
     22 N9          0.4237    1.4496   -2.1357 N.pl3     1 ATP        -0.1699
     23 C8          1.4069    0.9710   -2.9662 C.ar      1 ATP         0.4438
     24 N7          0.9316    0.5623   -4.1260 N.2       1 ATP        -0.6280
     25 C5         -0.4120    0.7884   -4.0344 C.ar      1 ATP         0.2109
     26 C6         -1.4353    0.5283   -5.0204 C.ar      1 ATP         0.6180
     27 N6         -1.1199    0.0176   -6.1586 N.2       1 ATP        -0.8319
     28 N1         -2.6704    0.9095   -4.5147 N.pl3     1 ATP        -0.8664
     29 C2         -2.8863    1.4571   -3.2520 C.ar      1 ATP         0.5952
     30 N3         -1.9805    1.7017   -2.3442 N.2       1 ATP        -0.5599
     31 C4         -0.7561    1.3381   -2.8112 C.ar      1 ATP         0.0076
     32 HOG3        8.5697   -0.4381   -3.0140 H         1 ATP         0.4101
     33 H5'1        4.3179    1.3548   -0.6470 H         1 ATP         0.0364
     34 H5'2        4.6083    1.5737    1.0983 H         1 ATP         0.0364
     35 H4'         2.3752    2.7029    1.3156 H         1 ATP         0.0945
     36 H3'         2.4336   -0.1217   -0.0015 H         1 ATP         0.0703
     37 HO3'        1.7160   -0.6716    2.0397 H         1 ATP         0.4099
     38 H2'         0.0316    0.0155   -0.0339 H         1 ATP         0.0676
     39 HO2'       -1.1270    1.5823    1.1180 H         1 ATP         0.4291
     40 H1'        -0.1474    2.7798   -0.6651 H         1 ATP         0.0950
     41 H8          2.4466    0.9468   -2.6694 H         1 ATP         0.1135
     42 HN62       -1.9661   -0.0965   -6.7275 H         1 ATP         0.3588
     43 H2         -3.9481    1.6825   -3.0660 H         1 ATP         0.0302
     44 H44        -3.4814    0.7753   -5.1133 H         1 ATP         0.4215
@<TRIPOS>BOND
     1    1    2 2
     2    1    3 1
     3    1    4 1
     4    1    8 1
     5    4   32 1
     6    5    6 2
     7    5    7 1
     8    5    8 1
     9    5   12 1
    10    9   10 2
    11    9   11 1
    12    9   12 1
    13    9   13 1
    14   13   14 1
    15   14   15 1
    16   14   33 1
    17   14   34 1
    18   15   16 1
    19   15   17 1
    20   15   35 1
    21   16   21 1
    22   17   18 1
    23   17   19 1
    24   17   36 1
    25   18   37 1
    26   19   20 1
    27   19   21 1
    28   19   38 1
    29   20   39 1
    30   21   22 1
    31   21   40 1
    32   22   23 ar
    33   22   31 ar
    34   23   24 ar
    35   23   41 1
    36   24   25 ar
    37   25   26 ar
    38   25   31 ar
    39   26   27 2
    40   26   28 ar
    41   27   42 1
    42   28   29 ar
    43   28   44 1
    44   29   30 ar
    45   29   43 1
    46   30   31 ar
@<TRIPOS>SUBSTRUCTURE
     1 ATP         1 GROUP 0 A     ****
@<TRIPOS>MOLECULE
[[[3,4-dihydroxy-5-(6-imino-1~{H}-purin-9-yl)tetrahydrofuran-2-yl]methoxy-oxido-phosphoryl]oxy-oxido-phosphoryl] hydrogen phosphate
   44    46     1     0     0
SMALL
USER_CHARGES

@<TRIPOS>ATOM
      1 PG         -4.4605    8.5184    2.5988 P.3       1 ATP         1.5257
      2 O1G        -3.5561    9.6432    3.0509 O.co2     1 ATP        -0.8737
      3 O2G        -5.7272    8.1873    3.3562 O.co2     1 ATP        -0.8737
      4 O3G        -4.8427    8.7590    1.0297 O.3       1 ATP        -0.7971
      5 PB         -2.2058    6.9006    1.5779 P.3       1 ATP         1.6824
      6 O1B        -2.5236    7.0206    0.1041 O.co2     1 ATP        -0.8925
      7 O2B        -1.0852    7.6996    2.2052 O.co2     1 ATP        -0.8925
      8 O3B        -3.5738    7.1586    2.4309 O.3       1 ATP        -0.8047
      9 PA         -2.9646    4.0418    1.6587 P.3       1 ATP         1.5908
     10 O1A        -3.0699    3.8298    0.1639 O.co2     1 ATP        -0.8932
     11 O2A        -4.2078    4.1934    2.5079 O.co2     1 ATP        -0.8932
     12 O3A        -1.9910    5.3235    1.9402 O.3       1 ATP        -0.8088
     13 O5'        -2.0401    2.8620    2.3128 O.3       1 ATP        -0.5646
     14 C5'        -0.8811    2.4285    1.6206 C.3       1 ATP         0.2204
     15 C4'        -0.1994    1.3333    2.4288 C.3       1 ATP         0.0965
     16 O4'        -1.1285    0.2356    2.5840 O.3       1 ATP        -0.3907
     17 C3'         1.0324    0.7610    1.7344 C.3       1 ATP         0.0763
     18 O3'         1.9175    0.2377    2.7247 O.3       1 ATP        -0.5884
     19 C2'         0.4468   -0.3802    0.9263 C.3       1 ATP         0.0784
     20 O2'         1.3993   -1.3703    0.5961 O.3       1 ATP        -0.6085
     21 C1'        -0.6159   -0.9100    1.8769 C.3       1 ATP         0.2186
     22 N9         -1.7127   -1.6108    1.2130 N.pl3     1 ATP        -0.1699
     23 C8         -2.5485   -1.0808    0.2609 C.ar      1 ATP         0.4438
     24 N7         -3.4476   -1.9486   -0.1593 N.2       1 ATP        -0.6280
     25 C5         -3.1762   -3.0816    0.5530 C.ar      1 ATP         0.2109
     26 C6         -3.8510   -4.3579    0.5006 C.ar      1 ATP         0.6180
     27 N6         -4.8468   -4.5293   -0.2961 N.2       1 ATP        -0.8319
     28 N1         -3.2499   -5.2342    1.3937 N.pl3     1 ATP        -0.8664
     29 C2         -2.1646   -4.9275    2.2116 C.ar      1 ATP         0.5952
     30 N3         -1.5382   -3.7840    2.2778 N.2       1 ATP        -0.5599
     31 C4         -2.1054   -2.9018    1.4120 C.ar      1 ATP         0.0076
     32 HOG3       -4.1159    8.7897    0.3716 H         1 ATP         0.4101
     33 H5'1       -1.1767    2.0502    0.6368 H         1 ATP         0.0364
     34 H5'2       -0.2080    3.2814    1.4876 H         1 ATP         0.0364
     35 H4'         0.0403    1.7078    3.4343 H         1 ATP         0.0945
     36 H3'         1.5907    1.4859    1.1353 H         1 ATP         0.0703
     37 HO3'        2.6839   -0.1150    2.2479 H         1 ATP         0.4099
     38 H2'        -0.0017    0.0018    0.0005 H         1 ATP         0.0676
     39 HO2'        0.9369   -2.0558    0.0825 H         1 ATP         0.4291
     40 H1'        -0.1998   -1.6319    2.6178 H         1 ATP         0.0950
     41 H8         -2.4515   -0.0599   -0.0829 H         1 ATP         0.1135
     42 HN62       -5.1990   -5.4882   -0.2005 H         1 ATP         0.3588
     43 H2         -1.8555   -5.7783    2.8388 H         1 ATP         0.0302
     44 H44        -3.6312   -6.1750    1.4526 H         1 ATP         0.4215
@<TRIPOS>BOND
     1    1    2 2
     2    1    3 1
     3    1    4 1
     4    1    8 1
     5    4   32 1
     6    5    6 2
     7    5    7 1
     8    5    8 1
     9    5   12 1
    10    9   10 2
    11    9   11 1
    12    9   12 1
    13    9   13 1
    14   13   14 1
    15   14   15 1
    16   14   33 1
    17   14   34 1
    18   15   16 1
    19   15   17 1
    20   15   35 1
    21   16   21 1
    22   17   18 1
    23   17   19 1
    24   17   36 1
    25   18   37 1
    26   19   20 1
    27   19   21 1
    28   19   38 1
    29   20   39 1
    30   21   22 1
    31   21   40 1
    32   22   23 ar
    33   22   31 ar
    34   23   24 ar
    35   23   41 1
    36   24   25 ar
    37   25   26 ar
    38   25   31 ar
    39   26   27 2
    40   26   28 ar
    41   27   42 1
    42   28   29 ar
    43   28   44 1
    44   29   30 ar
    45   29   43 1
    46   30   31 ar
@<TRIPOS>SUBSTRUCTURE
     1 ATP         1 GROUP 0 A     ****
@<TRIPOS>MOLECULE
[[[3,4-dihydroxy-5-(6-imino-1~{H}-purin-9-yl)tetrahydrofuran-2-yl]methoxy-oxido-phosphoryl]oxy-oxido-phosphoryl] hydrogen phosphate
   44    46     1     0     0
SMALL
USER_CHARGES

@<TRIPOS>ATOM
      1 PG         -4.2275    5.1765   -3.2457 P.3       1 ATP         1.5257
      2 O1G        -4.3049    3.9681   -4.1519 O.co2     1 ATP        -0.8737
      3 O2G        -3.4740    6.4180   -3.6683 O.co2     1 ATP        -0.8737
      4 O3G        -5.7453    5.6088   -2.8268 O.3       1 ATP        -0.7971
      5 PB         -3.5625    5.5559   -0.3896 P.3       1 ATP         1.6824
      6 O1B        -2.5043    6.6214   -0.5695 O.co2     1 ATP        -0.8925
      7 O2B        -4.9519    5.9057    0.0952 O.co2     1 ATP        -0.8925
      8 O3B        -3.6911    4.7062   -1.7778 O.3       1 ATP        -0.8047
      9 PA         -2.5400    4.4095    2.1393 P.3       1 ATP         1.5908
     10 O1A        -3.7865    4.6329    2.9680 O.co2     1 ATP        -0.8932
     11 O2A        -1.3370    5.3145    2.2921 O.co2     1 ATP        -0.8932
     12 O3A        -2.9585    4.3736    0.5603 O.3       1 ATP        -0.8088
     13 O5'        -2.0401    2.8620    2.3128 O.3       1 ATP        -0.5646
     14 C5'        -0.8811    2.4285    1.6206 C.3       1 ATP         0.2204
     15 C4'        -0.1994    1.3333    2.4288 C.3       1 ATP         0.0965
     16 O4'        -1.1285    0.2356    2.5840 O.3       1 ATP        -0.3907
     17 C3'         1.0324    0.7610    1.7344 C.3       1 ATP         0.0763
     18 O3'         1.9175    0.2377    2.7247 O.3       1 ATP        -0.5884
     19 C2'         0.4468   -0.3802    0.9263 C.3       1 ATP         0.0784
     20 O2'         1.3993   -1.3703    0.5961 O.3       1 ATP        -0.6085
     21 C1'        -0.6159   -0.9100    1.8769 C.3       1 ATP         0.2186
     22 N9         -1.7127   -1.6108    1.2130 N.pl3     1 ATP        -0.1699
     23 C8         -2.0868   -2.9137    1.4327 C.ar      1 ATP         0.4438
     24 N7         -3.1125   -3.2756    0.6878 N.2       1 ATP        -0.6280
     25 C5         -3.4079   -2.1580   -0.0391 C.ar      1 ATP         0.2109
     26 C6         -4.4483   -1.9775   -1.0249 C.ar      1 ATP         0.6180
     27 N6         -5.2418   -2.9492   -1.3113 N.2       1 ATP        -0.8319
     28 N1         -4.3937   -0.6823   -1.5211 N.pl3     1 ATP        -0.8664
     29 C2         -3.4770    0.2901   -1.1271 C.ar      1 ATP         0.5952
     30 N3         -2.5289    0.1525   -0.2402 N.2       1 ATP        -0.5599
     31 C4         -2.5564   -1.1096    0.2655 C.ar      1 ATP         0.0076
     32 HOG3       -5.8641    6.3828   -2.2361 H         1 ATP         0.4101
     33 H5'1       -1.1767    2.0502    0.6368 H         1 ATP         0.0364
     34 H5'2       -0.2080    3.2814    1.4876 H         1 ATP         0.0364
     35 H4'         0.0403    1.7078    3.4343 H         1 ATP         0.0945
     36 H3'         1.5907    1.4859    1.1353 H         1 ATP         0.0703
     37 HO3'        2.6839   -0.1150    2.2479 H         1 ATP         0.4099
     38 H2'        -0.0017    0.0018    0.0005 H         1 ATP         0.0676
     39 HO2'        2.0953   -0.9375    0.0709 H         1 ATP         0.4291
     40 H1'        -0.1998   -1.6319    2.6178 H         1 ATP         0.0950
     41 H8         -1.5740   -3.5449    2.1457 H         1 ATP         0.1135
     42 HN62       -5.9117   -2.6433   -2.0256 H         1 ATP         0.3588
     43 H2         -3.6225    1.2454   -1.6553 H         1 ATP         0.0302
     44 H44        -5.0794   -0.4231   -2.2258 H         1 ATP         0.4215
@<TRIPOS>BOND
     1    1    2 2
     2    1    3 1
     3    1    4 1
     4    1    8 1
     5    4   32 1
     6    5    6 2
     7    5    7 1
     8    5    8 1
     9    5   12 1
    10    9   10 2
    11    9   11 1
    12    9   12 1
    13    9   13 1
    14   13   14 1
    15   14   15 1
    16   14   33 1
    17   14   34 1
    18   15   16 1
    19   15   17 1
    20   15   35 1
    21   16   21 1
    22   17   18 1
    23   17   19 1
    24   17   36 1
    25   18   37 1
    26   19   20 1
    27   19   21 1
    28   19   38 1
    29   20   39 1
    30   21   22 1
    31   21   40 1
    32   22   23 ar
    33   22   31 ar
    34   23   24 ar
    35   23   41 1
    36   24   25 ar
    37   25   26 ar
    38   25   31 ar
    39   26   27 2
    40   26   28 ar
    41   27   42 1
    42   28   29 ar
    43   28   44 1
    44   29   30 ar
    45   29   43 1
    46   30   31 ar
@<TRIPOS>SUBSTRUCTURE
     1 ATP         1 GROUP 0 A     ****
@<TRIPOS>MOLECULE
[[[3,4-dihydroxy-5-(6-imino-1~{H}-purin-9-yl)tetrahydrofuran-2-yl]methoxy-oxido-phosphoryl]oxy-oxido-phosphoryl] hydrogen phosphate
   44    46     1     0     0
SMALL
USER_CHARGES

@<TRIPOS>ATOM
      1 PG         -3.2548    5.6678   -3.2927 P.3       1 ATP         1.5257
      2 O1G        -4.6763    6.1067   -3.0201 O.co2     1 ATP        -0.8737
      3 O2G        -2.9578    4.5711   -4.2910 O.co2     1 ATP        -0.8737
      4 O3G        -2.3730    6.9833   -3.6901 O.3       1 ATP        -0.7971
      5 PB         -2.3895    6.1938   -0.5145 P.3       1 ATP         1.6824
      6 O1B        -1.5014    7.3837   -0.8027 O.co2     1 ATP        -0.8925
      7 O2B        -3.7630    6.3705    0.0935 O.co2     1 ATP        -0.8925
      8 O3B        -2.5303    5.3040   -1.8762 O.3       1 ATP        -0.8047
      9 PA         -0.0889    4.4444    0.1193 P.3       1 ATP         1.5908
     10 O1A         0.9661    5.5282    0.1728 O.co2     1 ATP        -0.8932
     11 O2A        -0.2001    3.5318   -1.0825 O.co2     1 ATP        -0.8932
     12 O3A        -1.5516    5.1216    0.3871 O.3       1 ATP        -0.8088
     13 O5'         0.0178    3.5131    1.4595 O.3       1 ATP        -0.5646
     14 C5'        -0.8811    2.4285    1.6206 C.3       1 ATP         0.2204
     15 C4'        -0.1994    1.3333    2.4288 C.3       1 ATP         0.0965
     16 O4'        -1.1285    0.2356    2.5840 O.3       1 ATP        -0.3907
     17 C3'         1.0324    0.7610    1.7344 C.3       1 ATP         0.0763
     18 O3'         1.9175    0.2377    2.7247 O.3       1 ATP        -0.5884
     19 C2'         0.4468   -0.3802    0.9263 C.3       1 ATP         0.0784
     20 O2'         1.3993   -1.3703    0.5961 O.3       1 ATP        -0.6085
     21 C1'        -0.6159   -0.9100    1.8769 C.3       1 ATP         0.2186
     22 N9         -1.7127   -1.6108    1.2130 N.pl3     1 ATP        -0.1699
     23 C8         -1.7690   -2.9583    0.9549 C.ar      1 ATP         0.4438
     24 N7         -2.8827   -3.3076    0.3418 N.2       1 ATP        -0.6280
     25 C5         -3.5683   -2.1351    0.2017 C.ar      1 ATP         0.2109
     26 C6         -4.8617   -1.9185   -0.4044 C.ar      1 ATP         0.6180
     27 N6         -5.5166   -2.9094   -0.8993 N.2       1 ATP        -0.8319
     28 N1         -5.1837   -0.5701   -0.3344 N.pl3     1 ATP        -0.8664
     29 C2         -4.3821    0.4180    0.2330 C.ar      1 ATP         0.5952
     30 N3         -3.2117    0.2488    0.7860 N.2       1 ATP        -0.5599
     31 C4         -2.8672   -1.0657    0.7327 C.ar      1 ATP         0.0076
     32 HOG3       -1.4218    6.8626   -3.8973 H         1 ATP         0.4101
     33 H5'1       -1.7771    2.7849    2.1387 H         1 ATP         0.0364
     34 H5'2       -1.1654    2.0541    0.6320 H         1 ATP         0.0364
     35 H4'         0.0403    1.7078    3.4343 H         1 ATP         0.0945
     36 H3'         1.5907    1.4859    1.1353 H         1 ATP         0.0703
     37 HO3'        2.6839   -0.1150    2.2479 H         1 ATP         0.4099
     38 H2'        -0.0017    0.0018    0.0005 H         1 ATP         0.0676
     39 HO2'        2.0953   -0.9375    0.0709 H         1 ATP         0.4291
     40 H1'        -0.1998   -1.6319    2.6178 H         1 ATP         0.0950
     41 H8         -0.9697   -3.6300    1.2371 H         1 ATP         0.1135
     42 HN62       -6.4060   -2.5723   -1.2840 H         1 ATP         0.3588
     43 H2         -4.8409    1.4176    0.1757 H         1 ATP         0.0302
     44 H44        -6.0768   -0.2826   -0.7263 H         1 ATP         0.4215
@<TRIPOS>BOND
     1    1    2 2
     2    1    3 1
     3    1    4 1
     4    1    8 1
     5    4   32 1
     6    5    6 2
     7    5    7 1
     8    5    8 1
     9    5   12 1
    10    9   10 2
    11    9   11 1
    12    9   12 1
    13    9   13 1
    14   13   14 1
    15   14   15 1
    16   14   33 1
    17   14   34 1
    18   15   16 1
    19   15   17 1
    20   15   35 1
    21   16   21 1
    22   17   18 1
    23   17   19 1
    24   17   36 1
    25   18   37 1
    26   19   20 1
    27   19   21 1
    28   19   38 1
    29   20   39 1
    30   21   22 1
    31   21   40 1
    32   22   23 ar
    33   22   31 ar
    34   23   24 ar
    35   23   41 1
    36   24   25 ar
    37   25   26 ar
    38   25   31 ar
    39   26   27 2
    40   26   28 ar
    41   27   42 1
    42   28   29 ar
    43   28   44 1
    44   29   30 ar
    45   29   43 1
    46   30   31 ar
@<TRIPOS>SUBSTRUCTURE
     1 ATP         1 GROUP 0 A     ****
@<TRIPOS>MOLECULE
[[[3,4-dihydroxy-5-(6-imino-1~{H}-purin-9-yl)tetrahydrofuran-2-yl]methoxy-oxido-phosphoryl]oxy-oxido-phosphoryl] hydrogen phosphate
   44    46     1     0     0
SMALL
USER_CHARGES

@<TRIPOS>ATOM
      1 PG          0.8355    3.6509    6.4979 P.3       1 ATP         1.5257
      2 O1G         1.9047    4.5922    7.0059 O.co2     1 ATP        -0.8737
      3 O2G         1.1282    2.6712    5.3833 O.co2     1 ATP        -0.8737
      4 O3G         0.2258    2.8249    7.7674 O.3       1 ATP        -0.7971
      5 PB         -0.7129    5.6110    4.9154 P.3       1 ATP         1.6824
      6 O1B        -2.1747    5.9970    4.8770 O.co2     1 ATP        -0.8925
      7 O2B         0.3721    6.6601    5.0135 O.co2     1 ATP        -0.8925
      8 O3B        -0.4917    4.5163    6.1064 O.3       1 ATP        -0.8047
      9 PA         -0.3962    4.9846    2.0409 P.3       1 ATP         1.5908
     10 O1A         0.7136    5.9719    1.7515 O.co2     1 ATP        -0.8932
     11 O2A        -1.8200    5.2757    1.6193 O.co2     1 ATP        -0.8932
     12 O3A        -0.3932    4.6446    3.6391 O.3       1 ATP        -0.8088
     13 O5'         0.0178    3.5131    1.4595 O.3       1 ATP        -0.5646
     14 C5'        -0.8811    2.4285    1.6206 C.3       1 ATP         0.2204
     15 C4'        -0.1994    1.3333    2.4288 C.3       1 ATP         0.0965
     16 O4'        -1.1285    0.2356    2.5840 O.3       1 ATP        -0.3907
     17 C3'         1.0324    0.7610    1.7344 C.3       1 ATP         0.0763
     18 O3'         1.9175    0.2377    2.7247 O.3       1 ATP        -0.5884
     19 C2'         0.4468   -0.3802    0.9263 C.3       1 ATP         0.0784
     20 O2'         1.3993   -1.3703    0.5961 O.3       1 ATP        -0.6085
     21 C1'        -0.6159   -0.9100    1.8769 C.3       1 ATP         0.2186
     22 N9         -1.7127   -1.6108    1.2130 N.pl3     1 ATP        -0.1699
     23 C8         -2.8662   -1.0361    0.7388 C.ar      1 ATP         0.4438
     24 N7         -3.6774   -1.9166    0.1867 N.2       1 ATP        -0.6280
     25 C5         -3.0159   -3.1045    0.3122 C.ar      1 ATP         0.2109
     26 C6         -3.4377   -4.4169   -0.1199 C.ar      1 ATP         0.6180
     27 N6         -4.5720   -4.5691   -0.7080 N.2       1 ATP        -0.8319
     28 N1         -2.4600   -5.3463    0.2071 N.pl3     1 ATP        -0.8664
     29 C2         -1.2595   -5.0554    0.8515 C.ar      1 ATP         0.5952
     30 N3         -0.8555   -3.8803    1.2516 N.2       1 ATP        -0.5599
     31 C4         -1.7946   -2.9457    0.9448 C.ar      1 ATP         0.0076
     32 HOG3       -0.4839    2.1686    7.6001 H         1 ATP         0.4101
     33 H5'1       -1.7771    2.7849    2.1387 H         1 ATP         0.0364
     34 H5'2       -1.1654    2.0541    0.6320 H         1 ATP         0.0364
     35 H4'         0.0403    1.7078    3.4343 H         1 ATP         0.0945
     36 H3'         1.5907    1.4859    1.1353 H         1 ATP         0.0703
     37 HO3'        2.1521    0.9800    3.3017 H         1 ATP         0.4099
     38 H2'        -0.0017    0.0018    0.0005 H         1 ATP         0.0676
     39 HO2'        0.9369   -2.0558    0.0825 H         1 ATP         0.4291
     40 H1'        -0.1998   -1.6319    2.6178 H         1 ATP         0.0950
     41 H8         -3.0558    0.0252    0.8256 H         1 ATP         0.1135
     42 HN62       -4.7047   -5.5592   -0.9421 H         1 ATP         0.3588
     43 H2         -0.6372   -5.9505    1.0077 H         1 ATP         0.0302
     44 H44        -2.6338   -6.3155   -0.0469 H         1 ATP         0.4215
@<TRIPOS>BOND
     1    1    2 2
     2    1    3 1
     3    1    4 1
     4    1    8 1
     5    4   32 1
     6    5    6 2
     7    5    7 1
     8    5    8 1
     9    5   12 1
    10    9   10 2
    11    9   11 1
    12    9   12 1
    13    9   13 1
    14   13   14 1
    15   14   15 1
    16   14   33 1
    17   14   34 1
    18   15   16 1
    19   15   17 1
    20   15   35 1
    21   16   21 1
    22   17   18 1
    23   17   19 1
    24   17   36 1
    25   18   37 1
    26   19   20 1
    27   19   21 1
    28   19   38 1
    29   20   39 1
    30   21   22 1
    31   21   40 1
    32   22   23 ar
    33   22   31 ar
    34   23   24 ar
    35   23   41 1
    36   24   25 ar
    37   25   26 ar
    38   25   31 ar
    39   26   27 2
    40   26   28 ar
    41   27   42 1
    42   28   29 ar
    43   28   44 1
    44   29   30 ar
    45   29   43 1
    46   30   31 ar
@<TRIPOS>SUBSTRUCTURE
     1 ATP         1 GROUP 0 A     ****
@<TRIPOS>MOLECULE
[[[3,4-dihydroxy-5-(6-imino-1~{H}-purin-9-yl)tetrahydrofuran-2-yl]methoxy-oxido-phosphoryl]oxy-oxido-phosphoryl] hydrogen phosphate
   44    46     1     0     0
SMALL
USER_CHARGES

@<TRIPOS>ATOM
      1 PG         -2.4958    7.6633   -1.9037 P.3       1 ATP         1.5257
      2 O1G        -3.7072    8.5289   -1.6378 O.co2     1 ATP        -0.8737
      3 O2G        -2.2940    7.0007   -3.2483 O.co2     1 ATP        -0.8737
      4 O3G        -1.1551    8.5225   -1.5427 O.3       1 ATP        -0.7971
      5 PB         -2.3698    6.7018    0.8897 P.3       1 ATP         1.6824
      6 O1B        -1.0971    7.4141    1.2902 O.co2     1 ATP        -0.8925
      7 O2B        -3.7238    7.2063    1.3369 O.co2     1 ATP        -0.8925
      8 O3B        -2.3852    6.5306   -0.7339 O.3       1 ATP        -0.8047
      9 PA         -2.1561    4.4278    2.7707 P.3       1 ATP         1.5908
     10 O1A        -3.4710    4.6479    3.4867 O.co2     1 ATP        -0.8932
     11 O2A        -0.8475    4.8296    3.4155 O.co2     1 ATP        -0.8932
     12 O3A        -2.2377    5.1262    1.2959 O.3       1 ATP        -0.8088
     13 O5'        -2.0401    2.8620    2.3128 O.3       1 ATP        -0.5646
     14 C5'        -0.8811    2.4285    1.6206 C.3       1 ATP         0.2204
     15 C4'        -0.1994    1.3333    2.4288 C.3       1 ATP         0.0965
     16 O4'        -1.1285    0.2356    2.5840 O.3       1 ATP        -0.3907
     17 C3'         1.0324    0.7610    1.7344 C.3       1 ATP         0.0763
     18 O3'         1.9175    0.2377    2.7247 O.3       1 ATP        -0.5884
     19 C2'         0.4468   -0.3802    0.9263 C.3       1 ATP         0.0784
     20 O2'         1.3993   -1.3703    0.5961 O.3       1 ATP        -0.6085
     21 C1'        -0.6159   -0.9100    1.8769 C.3       1 ATP         0.2186
     22 N9         -1.7127   -1.6108    1.2130 N.pl3     1 ATP        -0.1699
     23 C8         -1.7690   -2.9583    0.9549 C.ar      1 ATP         0.4438
     24 N7         -2.8827   -3.3076    0.3418 N.2       1 ATP        -0.6280
     25 C5         -3.5683   -2.1351    0.2017 C.ar      1 ATP         0.2109
     26 C6         -4.8617   -1.9185   -0.4044 C.ar      1 ATP         0.6180
     27 N6         -5.5166   -2.9094   -0.8993 N.2       1 ATP        -0.8319
     28 N1         -5.1837   -0.5701   -0.3344 N.pl3     1 ATP        -0.8664
     29 C2         -4.3821    0.4180    0.2330 C.ar      1 ATP         0.5952
     30 N3         -3.2117    0.2488    0.7860 N.2       1 ATP        -0.5599
     31 C4         -2.8672   -1.0657    0.7327 C.ar      1 ATP         0.0076
     32 HOG3       -0.2803    8.0954   -1.6634 H         1 ATP         0.4101
     33 H5'1       -1.1767    2.0502    0.6368 H         1 ATP         0.0364
     34 H5'2       -0.2080    3.2814    1.4876 H         1 ATP         0.0364
     35 H4'         0.0403    1.7078    3.4343 H         1 ATP         0.0945
     36 H3'         1.5907    1.4859    1.1353 H         1 ATP         0.0703
     37 HO3'        2.6839   -0.1150    2.2479 H         1 ATP         0.4099
     38 H2'        -0.0017    0.0018    0.0005 H         1 ATP         0.0676
     39 HO2'        2.0953   -0.9375    0.0709 H         1 ATP         0.4291
     40 H1'        -0.1998   -1.6319    2.6178 H         1 ATP         0.0950
     41 H8         -0.9697   -3.6300    1.2371 H         1 ATP         0.1135
     42 HN62       -6.4060   -2.5723   -1.2840 H         1 ATP         0.3588
     43 H2         -4.8409    1.4176    0.1757 H         1 ATP         0.0302
     44 H44        -6.0768   -0.2826   -0.7263 H         1 ATP         0.4215
@<TRIPOS>BOND
     1    1    2 2
     2    1    3 1
     3    1    4 1
     4    1    8 1
     5    4   32 1
     6    5    6 2
     7    5    7 1
     8    5    8 1
     9    5   12 1
    10    9   10 2
    11    9   11 1
    12    9   12 1
    13    9   13 1
    14   13   14 1
    15   14   15 1
    16   14   33 1
    17   14   34 1
    18   15   16 1
    19   15   17 1
    20   15   35 1
    21   16   21 1
    22   17   18 1
    23   17   19 1
    24   17   36 1
    25   18   37 1
    26   19   20 1
    27   19   21 1
    28   19   38 1
    29   20   39 1
    30   21   22 1
    31   21   40 1
    32   22   23 ar
    33   22   31 ar
    34   23   24 ar
    35   23   41 1
    36   24   25 ar
    37   25   26 ar
    38   25   31 ar
    39   26   27 2
    40   26   28 ar
    41   27   42 1
    42   28   29 ar
    43   28   44 1
    44   29   30 ar
    45   29   43 1
    46   30   31 ar
@<TRIPOS>SUBSTRUCTURE
     1 ATP         1 GROUP 0 A     ****
@<TRIPOS>MOLECULE
[[[3,4-dihydroxy-5-(6-imino-1~{H}-purin-9-yl)tetrahydrofuran-2-yl]methoxy-oxido-phosphoryl]oxy-oxido-phosphoryl] hydrogen phosphate
   44    46     1     0     0
SMALL
USER_CHARGES

@<TRIPOS>ATOM
      1 PG          0.5142    7.1291   -2.4075 P.3       1 ATP         1.5257
      2 O1G         0.0794    7.1029   -3.8559 O.co2     1 ATP        -0.8737
      3 O2G         1.8783    7.6512   -2.0148 O.co2     1 ATP        -0.8737
      4 O3G        -0.6158    7.9280   -1.5411 O.3       1 ATP        -0.7971
      5 PB          1.0836    4.2436   -2.1020 P.3       1 ATP         1.6824
      6 O1B         0.7243    3.8179   -3.5081 O.co2     1 ATP        -0.8925
      7 O2B         2.5264    4.3688   -1.6660 O.co2     1 ATP        -0.8925
      8 O3B         0.3118    5.6424   -1.7652 O.3       1 ATP        -0.8047
      9 PA         -1.2907    2.9172   -0.9365 P.3       1 ATP         1.5908
     10 O1A        -1.6999    2.1404   -2.1692 O.co2     1 ATP        -0.8932
     11 O2A        -2.0348    4.1703   -0.5295 O.co2     1 ATP        -0.8932
     12 O3A         0.2994    3.2768   -1.0460 O.3       1 ATP        -0.8088
     13 O5'        -1.2434    1.9104    0.3515 O.3       1 ATP        -0.5646
     14 C5'        -0.8811    2.4285    1.6206 C.3       1 ATP         0.2204
     15 C4'        -0.1994    1.3333    2.4288 C.3       1 ATP         0.0965
     16 O4'        -1.1285    0.2356    2.5840 O.3       1 ATP        -0.3907
     17 C3'         1.0324    0.7610    1.7344 C.3       1 ATP         0.0763
     18 O3'         1.9175    0.2377    2.7247 O.3       1 ATP        -0.5884
     19 C2'         0.4468   -0.3802    0.9263 C.3       1 ATP         0.0784
     20 O2'         1.3993   -1.3703    0.5961 O.3       1 ATP        -0.6085
     21 C1'        -0.6159   -0.9100    1.8769 C.3       1 ATP         0.2186
     22 N9         -1.7127   -1.6108    1.2130 N.pl3     1 ATP        -0.1699
     23 C8         -2.8662   -1.0361    0.7388 C.ar      1 ATP         0.4438
     24 N7         -3.6774   -1.9166    0.1867 N.2       1 ATP        -0.6280
     25 C5         -3.0159   -3.1045    0.3122 C.ar      1 ATP         0.2109
     26 C6         -3.4377   -4.4169   -0.1199 C.ar      1 ATP         0.6180
     27 N6         -4.5720   -4.5691   -0.7080 N.2       1 ATP        -0.8319
     28 N1         -2.4600   -5.3463    0.2071 N.pl3     1 ATP        -0.8664
     29 C2         -1.2595   -5.0554    0.8515 C.ar      1 ATP         0.5952
     30 N3         -0.8555   -3.8803    1.2516 N.2       1 ATP        -0.5599
     31 C4         -1.7946   -2.9457    0.9448 C.ar      1 ATP         0.0076
     32 HOG3       -0.4774    8.0308   -0.5755 H         1 ATP         0.4101
     33 H5'1       -0.2033    3.2760    1.4769 H         1 ATP         0.0364
     34 H5'2       -1.7841    2.7762    2.1323 H         1 ATP         0.0364
     35 H4'         0.0403    1.7078    3.4343 H         1 ATP         0.0945
     36 H3'         1.5907    1.4859    1.1353 H         1 ATP         0.0703
     37 HO3'        2.6839   -0.1150    2.2479 H         1 ATP         0.4099
     38 H2'        -0.0017    0.0018    0.0005 H         1 ATP         0.0676
     39 HO2'        2.0953   -0.9375    0.0709 H         1 ATP         0.4291
     40 H1'        -0.1998   -1.6319    2.6178 H         1 ATP         0.0950
     41 H8         -3.0558    0.0252    0.8256 H         1 ATP         0.1135
     42 HN62       -4.7047   -5.5592   -0.9421 H         1 ATP         0.3588
     43 H2         -0.6372   -5.9505    1.0077 H         1 ATP         0.0302
     44 H44        -2.6338   -6.3155   -0.0469 H         1 ATP         0.4215
@<TRIPOS>BOND
     1    1    2 2
     2    1    3 1
     3    1    4 1
     4    1    8 1
     5    4   32 1
     6    5    6 2
     7    5    7 1
     8    5    8 1
     9    5   12 1
    10    9   10 2
    11    9   11 1
    12    9   12 1
    13    9   13 1
    14   13   14 1
    15   14   15 1
    16   14   33 1
    17   14   34 1
    18   15   16 1
    19   15   17 1
    20   15   35 1
    21   16   21 1
    22   17   18 1
    23   17   19 1
    24   17   36 1
    25   18   37 1
    26   19   20 1
    27   19   21 1
    28   19   38 1
    29   20   39 1
    30   21   22 1
    31   21   40 1
    32   22   23 ar
    33   22   31 ar
    34   23   24 ar
    35   23   41 1
    36   24   25 ar
    37   25   26 ar
    38   25   31 ar
    39   26   27 2
    40   26   28 ar
    41   27   42 1
    42   28   29 ar
    43   28   44 1
    44   29   30 ar
    45   29   43 1
    46   30   31 ar
@<TRIPOS>SUBSTRUCTURE
     1 ATP         1 GROUP 0 A     ****
@<TRIPOS>MOLECULE
[[[3,4-dihydroxy-5-(6-imino-1~{H}-purin-9-yl)tetrahydrofuran-2-yl]methoxy-oxido-phosphoryl]oxy-oxido-phosphoryl] hydrogen phosphate
   44    46     1     0     0
SMALL
USER_CHARGES

@<TRIPOS>ATOM
      1 PG          1.0854    3.8057   -5.0263 P.3       1 ATP         1.5257
      2 O1G         2.5738    3.6057   -5.2056 O.co2     1 ATP        -0.8737
      3 O2G         0.4214    5.1034   -5.4296 O.co2     1 ATP        -0.8737
      4 O3G         0.3044    2.5738   -5.7601 O.3       1 ATP        -0.7971
      5 PB          1.0836    4.2436   -2.1020 P.3       1 ATP         1.6824
      6 O1B         2.5723    4.1009   -1.8765 O.co2     1 ATP        -0.8925
      7 O2B         0.4181    5.6018   -2.1028 O.co2     1 ATP        -0.8925
      8 O3B         0.6860    3.4651   -3.4809 O.3       1 ATP        -0.8047
      9 PA         -1.2907    2.9172   -0.9365 P.3       1 ATP         1.5908
     10 O1A        -1.6999    2.1404   -2.1692 O.co2     1 ATP        -0.8932
     11 O2A        -2.0348    4.1703   -0.5295 O.co2     1 ATP        -0.8932
     12 O3A         0.2994    3.2768   -1.0460 O.3       1 ATP        -0.8088
     13 O5'        -1.2434    1.9104    0.3515 O.3       1 ATP        -0.5646
     14 C5'        -0.8811    2.4285    1.6206 C.3       1 ATP         0.2204
     15 C4'        -0.1994    1.3333    2.4288 C.3       1 ATP         0.0965
     16 O4'        -1.1285    0.2356    2.5840 O.3       1 ATP        -0.3907
     17 C3'         1.0324    0.7610    1.7344 C.3       1 ATP         0.0763
     18 O3'         1.9175    0.2377    2.7247 O.3       1 ATP        -0.5884
     19 C2'         0.4468   -0.3802    0.9263 C.3       1 ATP         0.0784
     20 O2'         1.3993   -1.3703    0.5961 O.3       1 ATP        -0.6085
     21 C1'        -0.6159   -0.9100    1.8769 C.3       1 ATP         0.2186
     22 N9         -1.7127   -1.6108    1.2130 N.pl3     1 ATP        -0.1699
     23 C8         -2.8662   -1.0361    0.7388 C.ar      1 ATP         0.4438
     24 N7         -3.6774   -1.9166    0.1867 N.2       1 ATP        -0.6280
     25 C5         -3.0159   -3.1045    0.3122 C.ar      1 ATP         0.2109
     26 C6         -3.4377   -4.4169   -0.1199 C.ar      1 ATP         0.6180
     27 N6         -4.5720   -4.5691   -0.7080 N.2       1 ATP        -0.8319
     28 N1         -2.4600   -5.3463    0.2071 N.pl3     1 ATP        -0.8664
     29 C2         -1.2595   -5.0554    0.8515 C.ar      1 ATP         0.5952
     30 N3         -0.8555   -3.8803    1.2516 N.2       1 ATP        -0.5599
     31 C4         -1.7946   -2.9457    0.9448 C.ar      1 ATP         0.0076
     32 HOG3       -0.6760    2.5599   -5.7322 H         1 ATP         0.4101
     33 H5'1       -0.2033    3.2760    1.4769 H         1 ATP         0.0364
     34 H5'2       -1.7841    2.7762    2.1323 H         1 ATP         0.0364
     35 H4'         0.0403    1.7078    3.4343 H         1 ATP         0.0945
     36 H3'         1.5907    1.4859    1.1353 H         1 ATP         0.0703
     37 HO3'        2.6839   -0.1150    2.2479 H         1 ATP         0.4099
     38 H2'        -0.0017    0.0018    0.0005 H         1 ATP         0.0676
     39 HO2'        2.0953   -0.9375    0.0709 H         1 ATP         0.4291
     40 H1'        -0.1998   -1.6319    2.6178 H         1 ATP         0.0950
     41 H8         -3.0558    0.0252    0.8256 H         1 ATP         0.1135
     42 HN62       -4.7047   -5.5592   -0.9421 H         1 ATP         0.3588
     43 H2         -0.6372   -5.9505    1.0077 H         1 ATP         0.0302
     44 H44        -2.6338   -6.3155   -0.0469 H         1 ATP         0.4215
@<TRIPOS>BOND
     1    1    2 2
     2    1    3 1
     3    1    4 1
     4    1    8 1
     5    4   32 1
     6    5    6 2
     7    5    7 1
     8    5    8 1
     9    5   12 1
    10    9   10 2
    11    9   11 1
    12    9   12 1
    13    9   13 1
    14   13   14 1
    15   14   15 1
    16   14   33 1
    17   14   34 1
    18   15   16 1
    19   15   17 1
    20   15   35 1
    21   16   21 1
    22   17   18 1
    23   17   19 1
    24   17   36 1
    25   18   37 1
    26   19   20 1
    27   19   21 1
    28   19   38 1
    29   20   39 1
    30   21   22 1
    31   21   40 1
    32   22   23 ar
    33   22   31 ar
    34   23   24 ar
    35   23   41 1
    36   24   25 ar
    37   25   26 ar
    38   25   31 ar
    39   26   27 2
    40   26   28 ar
    41   27   42 1
    42   28   29 ar
    43   28   44 1
    44   29   30 ar
    45   29   43 1
    46   30   31 ar
@<TRIPOS>SUBSTRUCTURE
     1 ATP         1 GROUP 0 A     ****
@<TRIPOS>MOLECULE
[[[3,4-dihydroxy-5-(6-imino-1~{H}-purin-9-yl)tetrahydrofuran-2-yl]methoxy-oxido-phosphoryl]oxy-oxido-phosphoryl] hydrogen phosphate
   44    46     1     0     0
SMALL
USER_CHARGES

@<TRIPOS>ATOM
      1 PG         -0.4072    6.8698   -0.7873 P.3       1 ATP         1.5257
      2 O1G         0.3279    5.9774    0.1877 O.co2     1 ATP        -0.8737
      3 O2G        -0.7712    8.2906   -0.4180 O.co2     1 ATP        -0.8737
      4 O3G         0.4224    6.8960   -2.1933 O.3       1 ATP        -0.7971
      5 PB         -3.0946    5.6738   -0.4862 P.3       1 ATP         1.6824
      6 O1B        -3.6436    6.8984    0.2111 O.co2     1 ATP        -0.8925
      7 O2B        -3.9664    4.8294   -1.3888 O.co2     1 ATP        -0.8925
      8 O3B        -1.7483    6.0981   -1.3065 O.3       1 ATP        -0.8047
      9 PA         -3.0798    3.8627    1.8536 P.3       1 ATP         1.5908
     10 O1A        -3.9736    2.7897    1.2703 O.co2     1 ATP        -0.8932
     11 O2A        -3.6162    4.8491    2.8679 O.co2     1 ATP        -0.8932
     12 O3A        -2.4007    4.7039    0.6285 O.3       1 ATP        -0.8088
     13 O5'        -1.7336    3.1724    2.4750 O.3       1 ATP        -0.5646
     14 C5'        -0.8811    2.4285    1.6206 C.3       1 ATP         0.2204
     15 C4'        -0.1994    1.3333    2.4288 C.3       1 ATP         0.0965
     16 O4'        -1.1285    0.2356    2.5840 O.3       1 ATP        -0.3907
     17 C3'         1.0324    0.7610    1.7344 C.3       1 ATP         0.0763
     18 O3'         1.9175    0.2377    2.7247 O.3       1 ATP        -0.5884
     19 C2'         0.4468   -0.3802    0.9263 C.3       1 ATP         0.0784
     20 O2'         1.3993   -1.3703    0.5961 O.3       1 ATP        -0.6085
     21 C1'        -0.6159   -0.9100    1.8769 C.3       1 ATP         0.2186
     22 N9         -1.7127   -1.6108    1.2130 N.pl3     1 ATP        -0.1699
     23 C8         -2.0868   -2.9137    1.4327 C.ar      1 ATP         0.4438
     24 N7         -3.1125   -3.2756    0.6878 N.2       1 ATP        -0.6280
     25 C5         -3.4079   -2.1580   -0.0391 C.ar      1 ATP         0.2109
     26 C6         -4.4483   -1.9775   -1.0249 C.ar      1 ATP         0.6180
     27 N6         -5.2418   -2.9492   -1.3113 N.2       1 ATP        -0.8319
     28 N1         -4.3937   -0.6823   -1.5211 N.pl3     1 ATP        -0.8664
     29 C2         -3.4770    0.2901   -1.1271 C.ar      1 ATP         0.5952
     30 N3         -2.5289    0.1525   -0.2402 N.2       1 ATP        -0.5599
     31 C4         -2.5564   -1.1096    0.2655 C.ar      1 ATP         0.0076
     32 HOG3        0.0706    7.4357   -2.9331 H         1 ATP         0.4101
     33 H5'1       -1.4800    1.9927    0.8146 H         1 ATP         0.0364
     34 H5'2       -0.1367    3.1040    1.1872 H         1 ATP         0.0364
     35 H4'         0.0403    1.7078    3.4343 H         1 ATP         0.0945
     36 H3'         1.5907    1.4859    1.1353 H         1 ATP         0.0703
     37 HO3'        2.6839   -0.1150    2.2479 H         1 ATP         0.4099
     38 H2'        -0.0017    0.0018    0.0005 H         1 ATP         0.0676
     39 HO2'        2.0953   -0.9375    0.0709 H         1 ATP         0.4291
     40 H1'        -0.1998   -1.6319    2.6178 H         1 ATP         0.0950
     41 H8         -1.5740   -3.5449    2.1457 H         1 ATP         0.1135
     42 HN62       -5.9117   -2.6433   -2.0256 H         1 ATP         0.3588
     43 H2         -3.6225    1.2454   -1.6553 H         1 ATP         0.0302
     44 H44        -5.0794   -0.4231   -2.2258 H         1 ATP         0.4215
@<TRIPOS>BOND
     1    1    2 2
     2    1    3 1
     3    1    4 1
     4    1    8 1
     5    4   32 1
     6    5    6 2
     7    5    7 1
     8    5    8 1
     9    5   12 1
    10    9   10 2
    11    9   11 1
    12    9   12 1
    13    9   13 1
    14   13   14 1
    15   14   15 1
    16   14   33 1
    17   14   34 1
    18   15   16 1
    19   15   17 1
    20   15   35 1
    21   16   21 1
    22   17   18 1
    23   17   19 1
    24   17   36 1
    25   18   37 1
    26   19   20 1
    27   19   21 1
    28   19   38 1
    29   20   39 1
    30   21   22 1
    31   21   40 1
    32   22   23 ar
    33   22   31 ar
    34   23   24 ar
    35   23   41 1
    36   24   25 ar
    37   25   26 ar
    38   25   31 ar
    39   26   27 2
    40   26   28 ar
    41   27   42 1
    42   28   29 ar
    43   28   44 1
    44   29   30 ar
    45   29   43 1
    46   30   31 ar
@<TRIPOS>SUBSTRUCTURE
     1 ATP         1 GROUP 0 A     ****
@<TRIPOS>MOLECULE
[[[3,4-dihydroxy-5-(6-imino-1~{H}-purin-9-yl)tetrahydrofuran-2-yl]methoxy-oxido-phosphoryl]oxy-oxido-phosphoryl] hydrogen phosphate
   44    46     1     0     0
SMALL
USER_CHARGES

@<TRIPOS>ATOM
      1 PG          6.9905    5.2365   -5.3398 P.3       1 ATP         1.5257
      2 O1G         6.0697    5.1883   -6.5387 O.co2     1 ATP        -0.8737
      3 O2G         8.4228    4.7611   -5.4403 O.co2     1 ATP        -0.8737
      4 O3G         6.9894    6.7573   -4.7458 O.3       1 ATP        -0.7971
      5 PB          5.8926    2.9048   -3.8902 P.3       1 ATP         1.6824
      6 O1B         4.8173    2.5361   -4.8879 O.co2     1 ATP        -0.8925
      7 O2B         7.1746    2.1087   -3.7902 O.co2     1 ATP        -0.8925
      8 O3B         6.2693    4.4813   -4.0855 O.3       1 ATP        -0.8047
      9 PA          5.8655    3.5044   -0.9928 P.3       1 ATP         1.5908
     10 O1A         6.1809    4.9807   -1.1004 O.co2     1 ATP        -0.8932
     11 O2A         6.9316    2.5139   -0.5781 O.co2     1 ATP        -0.8932
     12 O3A         5.2188    3.0011   -2.4064 O.3       1 ATP        -0.8088
     13 O5'         4.5670    3.2937   -0.0211 O.3       1 ATP        -0.5646
     14 C5'         4.0922    1.9801    0.2227 C.3       1 ATP         0.2204
     15 C4'         2.5944    2.0310    0.4653 C.3       1 ATP         0.0965
     16 O4'         1.9327    2.5740   -0.6889 O.3       1 ATP        -0.3907
     17 C3'         1.9685    0.6634    0.6767 C.3       1 ATP         0.0763
     18 O3'         2.1425    0.1975    1.9977 O.3       1 ATP        -0.5884
     19 C2'         0.5176    0.9128    0.3099 C.3       1 ATP         0.0784
     20 O2'        -0.2103    1.4454    1.4152 O.3       1 ATP        -0.6085
     21 C1'         0.6219    1.9765   -0.7844 C.3       1 ATP         0.2186
     22 N9          0.4237    1.4496   -2.1357 N.pl3     1 ATP        -0.1699
     23 C8          1.4069    0.9710   -2.9662 C.ar      1 ATP         0.4438
     24 N7          0.9316    0.5623   -4.1260 N.2       1 ATP        -0.6280
     25 C5         -0.4120    0.7884   -4.0344 C.ar      1 ATP         0.2109
     26 C6         -1.4353    0.5283   -5.0204 C.ar      1 ATP         0.6180
     27 N6         -1.1199    0.0176   -6.1586 N.2       1 ATP        -0.8319
     28 N1         -2.6704    0.9095   -4.5147 N.pl3     1 ATP        -0.8664
     29 C2         -2.8863    1.4571   -3.2520 C.ar      1 ATP         0.5952
     30 N3         -1.9805    1.7017   -2.3442 N.2       1 ATP        -0.5599
     31 C4         -0.7561    1.3381   -2.8112 C.ar      1 ATP         0.0076
     32 HOG3        7.5432    6.9520   -3.9599 H         1 ATP         0.4101
     33 H5'1        4.3179    1.3548   -0.6470 H         1 ATP         0.0364
     34 H5'2        4.6083    1.5737    1.0983 H         1 ATP         0.0364
     35 H4'         2.3752    2.7029    1.3156 H         1 ATP         0.0945
     36 H3'         2.4336   -0.1217   -0.0015 H         1 ATP         0.0703
     37 HO3'        3.0987    0.1465    2.1461 H         1 ATP         0.4099
     38 H2'         0.0316    0.0155   -0.0339 H         1 ATP         0.0676
     39 HO2'       -0.1608    0.7921    2.1351 H         1 ATP         0.4291
     40 H1'        -0.1474    2.7798   -0.6651 H         1 ATP         0.0950
     41 H8          2.4466    0.9468   -2.6694 H         1 ATP         0.1135
     42 HN62       -1.9661   -0.0965   -6.7275 H         1 ATP         0.3588
     43 H2         -3.9481    1.6825   -3.0660 H         1 ATP         0.0302
     44 H44        -3.4814    0.7753   -5.1133 H         1 ATP         0.4215
@<TRIPOS>BOND
     1    1    2 2
     2    1    3 1
     3    1    4 1
     4    1    8 1
     5    4   32 1
     6    5    6 2
     7    5    7 1
     8    5    8 1
     9    5   12 1
    10    9   10 2
    11    9   11 1
    12    9   12 1
    13    9   13 1
    14   13   14 1
    15   14   15 1
    16   14   33 1
    17   14   34 1
    18   15   16 1
    19   15   17 1
    20   15   35 1
    21   16   21 1
    22   17   18 1
    23   17   19 1
    24   17   36 1
    25   18   37 1
    26   19   20 1
    27   19   21 1
    28   19   38 1
    29   20   39 1
    30   21   22 1
    31   21   40 1
    32   22   23 ar
    33   22   31 ar
    34   23   24 ar
    35   23   41 1
    36   24   25 ar
    37   25   26 ar
    38   25   31 ar
    39   26   27 2
    40   26   28 ar
    41   27   42 1
    42   28   29 ar
    43   28   44 1
    44   29   30 ar
    45   29   43 1
    46   30   31 ar
@<TRIPOS>SUBSTRUCTURE
     1 ATP         1 GROUP 0 A     ****
@<TRIPOS>MOLECULE
[[[3,4-dihydroxy-5-(6-imino-1~{H}-purin-9-yl)tetrahydrofuran-2-yl]methoxy-oxido-phosphoryl]oxy-oxido-phosphoryl] hydrogen phosphate
   44    46     1     0     0
SMALL
USER_CHARGES

@<TRIPOS>ATOM
      1 PG          5.7163    4.9107   -4.0843 P.3       1 ATP         1.5257
      2 O1G         4.4293    4.4748   -3.4203 O.co2     1 ATP        -0.8737
      3 O2G         6.0169    4.5357   -5.5185 O.co2     1 ATP        -0.8737
      4 O3G         5.8558    6.5304   -3.9319 O.3       1 ATP        -0.7971
      5 PB          7.5261    2.9743   -2.7735 P.3       1 ATP         1.6824
      6 O1B         7.7580    2.2083   -4.0568 O.co2     1 ATP        -0.8925
      7 O2B         8.6150    3.1058   -1.7321 O.co2     1 ATP        -0.8925
      8 O3B         6.9754    4.4654   -3.1461 O.3       1 ATP        -0.8047
      9 PA          5.8979    0.9309   -1.3848 P.3       1 ATP         1.5908
     10 O1A         6.7868    0.7713   -0.1705 O.co2     1 ATP        -0.8932
     11 O2A         5.9018   -0.1050   -2.4878 O.co2     1 ATP        -0.8932
     12 O3A         6.1804    2.3945   -2.0539 O.3       1 ATP        -0.8088
     13 O5'         4.3516    1.1575   -0.9026 O.3       1 ATP        -0.5646
     14 C5'         4.0922    1.9801    0.2227 C.3       1 ATP         0.2204
     15 C4'         2.5944    2.0310    0.4653 C.3       1 ATP         0.0965
     16 O4'         1.9327    2.5740   -0.6889 O.3       1 ATP        -0.3907
     17 C3'         1.9685    0.6634    0.6767 C.3       1 ATP         0.0763
     18 O3'         2.1425    0.1975    1.9977 O.3       1 ATP        -0.5884
     19 C2'         0.5176    0.9128    0.3099 C.3       1 ATP         0.0784
     20 O2'        -0.2103    1.4454    1.4152 O.3       1 ATP        -0.6085
     21 C1'         0.6219    1.9765   -0.7844 C.3       1 ATP         0.2186
     22 N9          0.4237    1.4496   -2.1357 N.pl3     1 ATP        -0.1699
     23 C8          1.4069    0.9710   -2.9662 C.ar      1 ATP         0.4438
     24 N7          0.9316    0.5623   -4.1260 N.2       1 ATP        -0.6280
     25 C5         -0.4120    0.7884   -4.0344 C.ar      1 ATP         0.2109
     26 C6         -1.4353    0.5283   -5.0204 C.ar      1 ATP         0.6180
     27 N6         -1.1199    0.0176   -6.1586 N.2       1 ATP        -0.8319
     28 N1         -2.6704    0.9095   -4.5147 N.pl3     1 ATP        -0.8664
     29 C2         -2.8863    1.4571   -3.2520 C.ar      1 ATP         0.5952
     30 N3         -1.9805    1.7017   -2.3442 N.2       1 ATP        -0.5599
     31 C4         -0.7561    1.3381   -2.8112 C.ar      1 ATP         0.0076
     32 HOG3        6.6452    6.9691   -4.3147 H         1 ATP         0.4101
     33 H5'1        4.6069    1.5618    1.0936 H         1 ATP         0.0364
     34 H5'2        4.4824    2.9837    0.0254 H         1 ATP         0.0364
     35 H4'         2.3752    2.7029    1.3156 H         1 ATP         0.0945
     36 H3'         2.4336   -0.1217   -0.0015 H         1 ATP         0.0703
     37 HO3'        1.7160   -0.6716    2.0397 H         1 ATP         0.4099
     38 H2'         0.0316    0.0155   -0.0339 H         1 ATP         0.0676
     39 HO2'       -0.1608    0.7921    2.1351 H         1 ATP         0.4291
     40 H1'        -0.1474    2.7798   -0.6651 H         1 ATP         0.0950
     41 H8          2.4466    0.9468   -2.6694 H         1 ATP         0.1135
     42 HN62       -1.9661   -0.0965   -6.7275 H         1 ATP         0.3588
     43 H2         -3.9481    1.6825   -3.0660 H         1 ATP         0.0302
     44 H44        -3.4814    0.7753   -5.1133 H         1 ATP         0.4215
@<TRIPOS>BOND
     1    1    2 2
     2    1    3 1
     3    1    4 1
     4    1    8 1
     5    4   32 1
     6    5    6 2
     7    5    7 1
     8    5    8 1
     9    5   12 1
    10    9   10 2
    11    9   11 1
    12    9   12 1
    13    9   13 1
    14   13   14 1
    15   14   15 1
    16   14   33 1
    17   14   34 1
    18   15   16 1
    19   15   17 1
    20   15   35 1
    21   16   21 1
    22   17   18 1
    23   17   19 1
    24   17   36 1
    25   18   37 1
    26   19   20 1
    27   19   21 1
    28   19   38 1
    29   20   39 1
    30   21   22 1
    31   21   40 1
    32   22   23 ar
    33   22   31 ar
    34   23   24 ar
    35   23   41 1
    36   24   25 ar
    37   25   26 ar
    38   25   31 ar
    39   26   27 2
    40   26   28 ar
    41   27   42 1
    42   28   29 ar
    43   28   44 1
    44   29   30 ar
    45   29   43 1
    46   30   31 ar
@<TRIPOS>SUBSTRUCTURE
     1 ATP         1 GROUP 0 A     ****
@<TRIPOS>MOLECULE
[[[3,4-dihydroxy-5-(6-imino-1~{H}-purin-9-yl)tetrahydrofuran-2-yl]methoxy-oxido-phosphoryl]oxy-oxido-phosphoryl] hydrogen phosphate
   44    46     1     0     0
SMALL
USER_CHARGES

@<TRIPOS>ATOM
      1 PG         -6.7596    6.4205    1.0169 P.3       1 ATP         1.5257
      2 O1G        -7.0330    7.0737    2.3533 O.co2     1 ATP        -0.8737
      3 O2G        -7.8067    5.5625    0.3423 O.co2     1 ATP        -0.8737
      4 O3G        -6.2774    7.5728   -0.0346 O.3       1 ATP        -0.7971
      5 PB         -4.5240    4.8101   -0.0567 P.3       1 ATP         1.6824
      6 O1B        -5.3411    3.6385   -0.5540 O.co2     1 ATP        -0.8925
      7 O2B        -3.9736    5.8437   -1.0139 O.co2     1 ATP        -0.8925
      8 O3B        -5.3661    5.5763    1.1136 O.3       1 ATP        -0.8047
      9 PA         -3.3347    3.2338    2.1468 P.3       1 ATP         1.5908
     10 O1A        -3.8074    1.8725    1.6847 O.co2     1 ATP        -0.8932
     11 O2A        -4.0244    3.9450    3.2906 O.co2     1 ATP        -0.8932
     12 O3A        -3.2997    4.2420    0.8615 O.3       1 ATP        -0.8088
     13 O5'        -1.7336    3.1724    2.4750 O.3       1 ATP        -0.5646
     14 C5'        -0.8811    2.4285    1.6206 C.3       1 ATP         0.2204
     15 C4'        -0.1994    1.3333    2.4288 C.3       1 ATP         0.0965
     16 O4'        -1.1285    0.2356    2.5840 O.3       1 ATP        -0.3907
     17 C3'         1.0324    0.7610    1.7344 C.3       1 ATP         0.0763
     18 O3'         1.9175    0.2377    2.7247 O.3       1 ATP        -0.5884
     19 C2'         0.4468   -0.3802    0.9263 C.3       1 ATP         0.0784
     20 O2'         1.3993   -1.3703    0.5961 O.3       1 ATP        -0.6085
     21 C1'        -0.6159   -0.9100    1.8769 C.3       1 ATP         0.2186
     22 N9         -1.7127   -1.6108    1.2130 N.pl3     1 ATP        -0.1699
     23 C8         -2.5485   -1.0808    0.2609 C.ar      1 ATP         0.4438
     24 N7         -3.4476   -1.9486   -0.1593 N.2       1 ATP        -0.6280
     25 C5         -3.1762   -3.0816    0.5530 C.ar      1 ATP         0.2109
     26 C6         -3.8510   -4.3579    0.5006 C.ar      1 ATP         0.6180
     27 N6         -4.8468   -4.5293   -0.2961 N.2       1 ATP        -0.8319
     28 N1         -3.2499   -5.2342    1.3937 N.pl3     1 ATP        -0.8664
     29 C2         -2.1646   -4.9275    2.2116 C.ar      1 ATP         0.5952
     30 N3         -1.5382   -3.7840    2.2778 N.2       1 ATP        -0.5599
     31 C4         -2.1054   -2.9018    1.4120 C.ar      1 ATP         0.0076
     32 HOG3       -6.0604    7.3053   -0.9531 H         1 ATP         0.4101
     33 H5'1       -1.4800    1.9927    0.8146 H         1 ATP         0.0364
     34 H5'2       -0.1367    3.1040    1.1872 H         1 ATP         0.0364
     35 H4'         0.0403    1.7078    3.4343 H         1 ATP         0.0945
     36 H3'         1.5907    1.4859    1.1353 H         1 ATP         0.0703
     37 HO3'        2.6839   -0.1150    2.2479 H         1 ATP         0.4099
     38 H2'        -0.0017    0.0018    0.0005 H         1 ATP         0.0676
     39 HO2'        2.0953   -0.9375    0.0709 H         1 ATP         0.4291
     40 H1'        -0.1998   -1.6319    2.6178 H         1 ATP         0.0950
     41 H8         -2.4515   -0.0599   -0.0829 H         1 ATP         0.1135
     42 HN62       -5.1990   -5.4882   -0.2005 H         1 ATP         0.3588
     43 H2         -1.8555   -5.7783    2.8388 H         1 ATP         0.0302
     44 H44        -3.6312   -6.1750    1.4526 H         1 ATP         0.4215
@<TRIPOS>BOND
     1    1    2 2
     2    1    3 1
     3    1    4 1
     4    1    8 1
     5    4   32 1
     6    5    6 2
     7    5    7 1
     8    5    8 1
     9    5   12 1
    10    9   10 2
    11    9   11 1
    12    9   12 1
    13    9   13 1
    14   13   14 1
    15   14   15 1
    16   14   33 1
    17   14   34 1
    18   15   16 1
    19   15   17 1
    20   15   35 1
    21   16   21 1
    22   17   18 1
    23   17   19 1
    24   17   36 1
    25   18   37 1
    26   19   20 1
    27   19   21 1
    28   19   38 1
    29   20   39 1
    30   21   22 1
    31   21   40 1
    32   22   23 ar
    33   22   31 ar
    34   23   24 ar
    35   23   41 1
    36   24   25 ar
    37   25   26 ar
    38   25   31 ar
    39   26   27 2
    40   26   28 ar
    41   27   42 1
    42   28   29 ar
    43   28   44 1
    44   29   30 ar
    45   29   43 1
    46   30   31 ar
@<TRIPOS>SUBSTRUCTURE
     1 ATP         1 GROUP 0 A     ****
@<TRIPOS>MOLECULE
[[[3,4-dihydroxy-5-(6-imino-1~{H}-purin-9-yl)tetrahydrofuran-2-yl]methoxy-oxido-phosphoryl]oxy-oxido-phosphoryl] hydrogen phosphate
   44    46     1     0     0
SMALL
USER_CHARGES

@<TRIPOS>ATOM
      1 PG         -7.1327    5.6220    0.8060 P.3       1 ATP         1.5257
      2 O1G        -8.1921    4.6382    0.3619 O.co2     1 ATP        -0.8737
      3 O2G        -6.8855    6.8991    0.0344 O.co2     1 ATP        -0.8737
      4 O3G        -7.4038    6.0053    2.3698 O.3       1 ATP        -0.7971
      5 PB         -4.7646    4.1198   -0.1315 P.3       1 ATP         1.6824
      6 O1B        -5.4970    2.9262   -0.7027 O.co2     1 ATP        -0.8925
      7 O2B        -4.1908    5.1911   -1.0318 O.co2     1 ATP        -0.8925
      8 O3B        -5.7165    4.8314    0.9879 O.3       1 ATP        -0.8047
      9 PA         -2.5926    4.4187    1.8556 P.3       1 ATP         1.5908
     10 O1A        -3.4218    5.0536    2.9508 O.co2     1 ATP        -0.8932
     11 O2A        -1.6631    5.2564    1.0048 O.co2     1 ATP        -0.8932
     12 O3A        -3.5855    3.5838    0.8621 O.3       1 ATP        -0.8088
     13 O5'        -1.7336    3.1724    2.4750 O.3       1 ATP        -0.5646
     14 C5'        -0.8811    2.4285    1.6206 C.3       1 ATP         0.2204
     15 C4'        -0.1994    1.3333    2.4288 C.3       1 ATP         0.0965
     16 O4'        -1.1285    0.2356    2.5840 O.3       1 ATP        -0.3907
     17 C3'         1.0324    0.7610    1.7344 C.3       1 ATP         0.0763
     18 O3'         1.9175    0.2377    2.7247 O.3       1 ATP        -0.5884
     19 C2'         0.4468   -0.3802    0.9263 C.3       1 ATP         0.0784
     20 O2'         1.3993   -1.3703    0.5961 O.3       1 ATP        -0.6085
     21 C1'        -0.6159   -0.9100    1.8769 C.3       1 ATP         0.2186
     22 N9         -1.7127   -1.6108    1.2130 N.pl3     1 ATP        -0.1699
     23 C8         -2.0868   -2.9137    1.4327 C.ar      1 ATP         0.4438
     24 N7         -3.1125   -3.2756    0.6878 N.2       1 ATP        -0.6280
     25 C5         -3.4079   -2.1580   -0.0391 C.ar      1 ATP         0.2109
     26 C6         -4.4483   -1.9775   -1.0249 C.ar      1 ATP         0.6180
     27 N6         -5.2418   -2.9492   -1.3113 N.2       1 ATP        -0.8319
     28 N1         -4.3937   -0.6823   -1.5211 N.pl3     1 ATP        -0.8664
     29 C2         -3.4770    0.2901   -1.1271 C.ar      1 ATP         0.5952
     30 N3         -2.5289    0.1525   -0.2402 N.2       1 ATP        -0.5599
     31 C4         -2.5564   -1.1096    0.2655 C.ar      1 ATP         0.0076
     32 HOG3       -6.7961    6.6389    2.8074 H         1 ATP         0.4101
     33 H5'1       -1.4800    1.9927    0.8146 H         1 ATP         0.0364
     34 H5'2       -0.1367    3.1040    1.1872 H         1 ATP         0.0364
     35 H4'         0.0403    1.7078    3.4343 H         1 ATP         0.0945
     36 H3'         1.5907    1.4859    1.1353 H         1 ATP         0.0703
     37 HO3'        2.1521    0.9800    3.3017 H         1 ATP         0.4099
     38 H2'        -0.0017    0.0018    0.0005 H         1 ATP         0.0676
     39 HO2'        0.9369   -2.0558    0.0825 H         1 ATP         0.4291
     40 H1'        -0.1998   -1.6319    2.6178 H         1 ATP         0.0950
     41 H8         -1.5740   -3.5449    2.1457 H         1 ATP         0.1135
     42 HN62       -5.9117   -2.6433   -2.0256 H         1 ATP         0.3588
     43 H2         -3.6225    1.2454   -1.6553 H         1 ATP         0.0302
     44 H44        -5.0794   -0.4231   -2.2258 H         1 ATP         0.4215
@<TRIPOS>BOND
     1    1    2 2
     2    1    3 1
     3    1    4 1
     4    1    8 1
     5    4   32 1
     6    5    6 2
     7    5    7 1
     8    5    8 1
     9    5   12 1
    10    9   10 2
    11    9   11 1
    12    9   12 1
    13    9   13 1
    14   13   14 1
    15   14   15 1
    16   14   33 1
    17   14   34 1
    18   15   16 1
    19   15   17 1
    20   15   35 1
    21   16   21 1
    22   17   18 1
    23   17   19 1
    24   17   36 1
    25   18   37 1
    26   19   20 1
    27   19   21 1
    28   19   38 1
    29   20   39 1
    30   21   22 1
    31   21   40 1
    32   22   23 ar
    33   22   31 ar
    34   23   24 ar
    35   23   41 1
    36   24   25 ar
    37   25   26 ar
    38   25   31 ar
    39   26   27 2
    40   26   28 ar
    41   27   42 1
    42   28   29 ar
    43   28   44 1
    44   29   30 ar
    45   29   43 1
    46   30   31 ar
@<TRIPOS>SUBSTRUCTURE
     1 ATP         1 GROUP 0 A     ****
@<TRIPOS>MOLECULE
[[[3,4-dihydroxy-5-(6-imino-1~{H}-purin-9-yl)tetrahydrofuran-2-yl]methoxy-oxido-phosphoryl]oxy-oxido-phosphoryl] hydrogen phosphate
   44    46     1     0     0
SMALL
USER_CHARGES

@<TRIPOS>ATOM
      1 PG         -2.4958    7.6633   -1.9037 P.3       1 ATP         1.5257
      2 O1G        -2.6373    6.9754   -3.2432 O.co2     1 ATP        -0.8737
      3 O2G        -1.4271    8.7091   -1.6760 O.co2     1 ATP        -0.8737
      4 O3G        -3.9415    8.3015   -1.4931 O.3       1 ATP        -0.7971
      5 PB         -2.3698    6.7018    0.8897 P.3       1 ATP         1.6824
      6 O1B        -1.0971    7.4141    1.2902 O.co2     1 ATP        -0.8925
      7 O2B        -3.7238    7.2063    1.3369 O.co2     1 ATP        -0.8925
      8 O3B        -2.3852    6.5306   -0.7339 O.3       1 ATP        -0.8047
      9 PA         -2.1561    4.4278    2.7707 P.3       1 ATP         1.5908
     10 O1A        -3.4710    4.6479    3.4867 O.co2     1 ATP        -0.8932
     11 O2A        -0.8475    4.8296    3.4155 O.co2     1 ATP        -0.8932
     12 O3A        -2.2377    5.1262    1.2959 O.3       1 ATP        -0.8088
     13 O5'        -2.0401    2.8620    2.3128 O.3       1 ATP        -0.5646
     14 C5'        -0.8811    2.4285    1.6206 C.3       1 ATP         0.2204
     15 C4'        -0.1994    1.3333    2.4288 C.3       1 ATP         0.0965
     16 O4'        -1.1285    0.2356    2.5840 O.3       1 ATP        -0.3907
     17 C3'         1.0324    0.7610    1.7344 C.3       1 ATP         0.0763
     18 O3'         1.9175    0.2377    2.7247 O.3       1 ATP        -0.5884
     19 C2'         0.4468   -0.3802    0.9263 C.3       1 ATP         0.0784
     20 O2'         1.3993   -1.3703    0.5961 O.3       1 ATP        -0.6085
     21 C1'        -0.6159   -0.9100    1.8769 C.3       1 ATP         0.2186
     22 N9         -1.7127   -1.6108    1.2130 N.pl3     1 ATP        -0.1699
     23 C8         -2.5485   -1.0808    0.2609 C.ar      1 ATP         0.4438
     24 N7         -3.4476   -1.9486   -0.1593 N.2       1 ATP        -0.6280
     25 C5         -3.1762   -3.0816    0.5530 C.ar      1 ATP         0.2109
     26 C6         -3.8510   -4.3579    0.5006 C.ar      1 ATP         0.6180
     27 N6         -4.8468   -4.5293   -0.2961 N.2       1 ATP        -0.8319
     28 N1         -3.2499   -5.2342    1.3937 N.pl3     1 ATP        -0.8664
     29 C2         -2.1646   -4.9275    2.2116 C.ar      1 ATP         0.5952
     30 N3         -1.5382   -3.7840    2.2778 N.2       1 ATP        -0.5599
     31 C4         -2.1054   -2.9018    1.4120 C.ar      1 ATP         0.0076
     32 HOG3       -4.0139    8.7849   -0.6426 H         1 ATP         0.4101
     33 H5'1       -1.1767    2.0502    0.6368 H         1 ATP         0.0364
     34 H5'2       -0.2080    3.2814    1.4876 H         1 ATP         0.0364
     35 H4'         0.0403    1.7078    3.4343 H         1 ATP         0.0945
     36 H3'         1.5907    1.4859    1.1353 H         1 ATP         0.0703
     37 HO3'        2.6839   -0.1150    2.2479 H         1 ATP         0.4099
     38 H2'        -0.0017    0.0018    0.0005 H         1 ATP         0.0676
     39 HO2'        0.9369   -2.0558    0.0825 H         1 ATP         0.4291
     40 H1'        -0.1998   -1.6319    2.6178 H         1 ATP         0.0950
     41 H8         -2.4515   -0.0599   -0.0829 H         1 ATP         0.1135
     42 HN62       -5.1990   -5.4882   -0.2005 H         1 ATP         0.3588
     43 H2         -1.8555   -5.7783    2.8388 H         1 ATP         0.0302
     44 H44        -3.6312   -6.1750    1.4526 H         1 ATP         0.4215
@<TRIPOS>BOND
     1    1    2 2
     2    1    3 1
     3    1    4 1
     4    1    8 1
     5    4   32 1
     6    5    6 2
     7    5    7 1
     8    5    8 1
     9    5   12 1
    10    9   10 2
    11    9   11 1
    12    9   12 1
    13    9   13 1
    14   13   14 1
    15   14   15 1
    16   14   33 1
    17   14   34 1
    18   15   16 1
    19   15   17 1
    20   15   35 1
    21   16   21 1
    22   17   18 1
    23   17   19 1
    24   17   36 1
    25   18   37 1
    26   19   20 1
    27   19   21 1
    28   19   38 1
    29   20   39 1
    30   21   22 1
    31   21   40 1
    32   22   23 ar
    33   22   31 ar
    34   23   24 ar
    35   23   41 1
    36   24   25 ar
    37   25   26 ar
    38   25   31 ar
    39   26   27 2
    40   26   28 ar
    41   27   42 1
    42   28   29 ar
    43   28   44 1
    44   29   30 ar
    45   29   43 1
    46   30   31 ar
@<TRIPOS>SUBSTRUCTURE
     1 ATP         1 GROUP 0 A     ****
@<TRIPOS>MOLECULE
[[[3,4-dihydroxy-5-(6-imino-1~{H}-purin-9-yl)tetrahydrofuran-2-yl]methoxy-oxido-phosphoryl]oxy-oxido-phosphoryl] hydrogen phosphate
   44    46     1     0     0
SMALL
USER_CHARGES

@<TRIPOS>ATOM
      1 PG         -4.5187    7.5650    2.4280 P.3       1 ATP         1.5257
      2 O1G        -5.4900    7.1149    1.3597 O.co2     1 ATP        -0.8737
      3 O2G        -4.0041    8.9870    2.4614 O.co2     1 ATP        -0.8737
      4 O3G        -5.1535    7.2090    3.8895 O.3       1 ATP        -0.7971
      5 PB         -1.9924    6.4606    3.4965 P.3       1 ATP         1.6824
      6 O1B        -1.1448    7.7023    3.3318 O.co2     1 ATP        -0.8925
      7 O2B        -2.5141    6.0425    4.8532 O.co2     1 ATP        -0.8925
      8 O3B        -3.2475    6.5418    2.4554 O.3       1 ATP        -0.8047
      9 PA         -0.5790    5.0299    1.3261 P.3       1 ATP         1.5908
     10 O1A         0.5634    6.0092    1.1642 O.co2     1 ATP        -0.8932
     11 O2A        -1.7210    5.0027    0.3337 O.co2     1 ATP        -0.8932
     12 O3A        -1.2057    5.1972    2.8258 O.3       1 ATP        -0.8088
     13 O5'         0.0178    3.5131    1.4595 O.3       1 ATP        -0.5646
     14 C5'        -0.8811    2.4285    1.6206 C.3       1 ATP         0.2204
     15 C4'        -0.1994    1.3333    2.4288 C.3       1 ATP         0.0965
     16 O4'        -1.1285    0.2356    2.5840 O.3       1 ATP        -0.3907
     17 C3'         1.0324    0.7610    1.7344 C.3       1 ATP         0.0763
     18 O3'         1.9175    0.2377    2.7247 O.3       1 ATP        -0.5884
     19 C2'         0.4468   -0.3802    0.9263 C.3       1 ATP         0.0784
     20 O2'         1.3993   -1.3703    0.5961 O.3       1 ATP        -0.6085
     21 C1'        -0.6159   -0.9100    1.8769 C.3       1 ATP         0.2186
     22 N9         -1.7127   -1.6108    1.2130 N.pl3     1 ATP        -0.1699
     23 C8         -1.7690   -2.9583    0.9549 C.ar      1 ATP         0.4438
     24 N7         -2.8827   -3.3076    0.3418 N.2       1 ATP        -0.6280
     25 C5         -3.5683   -2.1351    0.2017 C.ar      1 ATP         0.2109
     26 C6         -4.8617   -1.9185   -0.4044 C.ar      1 ATP         0.6180
     27 N6         -5.5166   -2.9094   -0.8993 N.2       1 ATP        -0.8319
     28 N1         -5.1837   -0.5701   -0.3344 N.pl3     1 ATP        -0.8664
     29 C2         -4.3821    0.4180    0.2330 C.ar      1 ATP         0.5952
     30 N3         -3.2117    0.2488    0.7860 N.2       1 ATP        -0.5599
     31 C4         -2.8672   -1.0657    0.7327 C.ar      1 ATP         0.0076
     32 HOG3       -4.6384    7.4411    4.6914 H         1 ATP         0.4101
     33 H5'1       -1.7771    2.7849    2.1387 H         1 ATP         0.0364
     34 H5'2       -1.1654    2.0541    0.6320 H         1 ATP         0.0364
     35 H4'         0.0403    1.7078    3.4343 H         1 ATP         0.0945
     36 H3'         1.5907    1.4859    1.1353 H         1 ATP         0.0703
     37 HO3'        2.6839   -0.1150    2.2479 H         1 ATP         0.4099
     38 H2'        -0.0017    0.0018    0.0005 H         1 ATP         0.0676
     39 HO2'        2.0953   -0.9375    0.0709 H         1 ATP         0.4291
     40 H1'        -0.1998   -1.6319    2.6178 H         1 ATP         0.0950
     41 H8         -0.9697   -3.6300    1.2371 H         1 ATP         0.1135
     42 HN62       -6.4060   -2.5723   -1.2840 H         1 ATP         0.3588
     43 H2         -4.8409    1.4176    0.1757 H         1 ATP         0.0302
     44 H44        -6.0768   -0.2826   -0.7263 H         1 ATP         0.4215
@<TRIPOS>BOND
     1    1    2 2
     2    1    3 1
     3    1    4 1
     4    1    8 1
     5    4   32 1
     6    5    6 2
     7    5    7 1
     8    5    8 1
     9    5   12 1
    10    9   10 2
    11    9   11 1
    12    9   12 1
    13    9   13 1
    14   13   14 1
    15   14   15 1
    16   14   33 1
    17   14   34 1
    18   15   16 1
    19   15   17 1
    20   15   35 1
    21   16   21 1
    22   17   18 1
    23   17   19 1
    24   17   36 1
    25   18   37 1
    26   19   20 1
    27   19   21 1
    28   19   38 1
    29   20   39 1
    30   21   22 1
    31   21   40 1
    32   22   23 ar
    33   22   31 ar
    34   23   24 ar
    35   23   41 1
    36   24   25 ar
    37   25   26 ar
    38   25   31 ar
    39   26   27 2
    40   26   28 ar
    41   27   42 1
    42   28   29 ar
    43   28   44 1
    44   29   30 ar
    45   29   43 1
    46   30   31 ar
@<TRIPOS>SUBSTRUCTURE
     1 ATP         1 GROUP 0 A     ****
@<TRIPOS>MOLECULE
[[[3,4-dihydroxy-5-(6-imino-1~{H}-purin-9-yl)tetrahydrofuran-2-yl]methoxy-oxido-phosphoryl]oxy-oxido-phosphoryl] hydrogen phosphate
   44    46     1     0     0
SMALL
USER_CHARGES

@<TRIPOS>ATOM
      1 PG         -0.6234    4.6901    7.7239 P.3       1 ATP         1.5257
      2 O1G        -2.0712    4.9517    8.0746 O.co2     1 ATP        -0.8737
      3 O2G         0.4726    5.6128    8.2086 O.co2     1 ATP        -0.8737
      4 O3G        -0.2500    3.1637    8.1672 O.3       1 ATP        -0.7971
      5 PB         -0.7129    5.6110    4.9154 P.3       1 ATP         1.6824
      6 O1B        -2.1747    5.9970    4.8770 O.co2     1 ATP        -0.8925
      7 O2B         0.3721    6.6601    5.0135 O.co2     1 ATP        -0.8925
      8 O3B        -0.4917    4.5163    6.1064 O.3       1 ATP        -0.8047
      9 PA         -0.3962    4.9846    2.0409 P.3       1 ATP         1.5908
     10 O1A         0.7136    5.9719    1.7515 O.co2     1 ATP        -0.8932
     11 O2A        -1.8200    5.2757    1.6193 O.co2     1 ATP        -0.8932
     12 O3A        -0.3932    4.6446    3.6391 O.3       1 ATP        -0.8088
     13 O5'         0.0178    3.5131    1.4595 O.3       1 ATP        -0.5646
     14 C5'        -0.8811    2.4285    1.6206 C.3       1 ATP         0.2204
     15 C4'        -0.1994    1.3333    2.4288 C.3       1 ATP         0.0965
     16 O4'        -1.1285    0.2356    2.5840 O.3       1 ATP        -0.3907
     17 C3'         1.0324    0.7610    1.7344 C.3       1 ATP         0.0763
     18 O3'         1.9175    0.2377    2.7247 O.3       1 ATP        -0.5884
     19 C2'         0.4468   -0.3802    0.9263 C.3       1 ATP         0.0784
     20 O2'         1.3993   -1.3703    0.5961 O.3       1 ATP        -0.6085
     21 C1'        -0.6159   -0.9100    1.8769 C.3       1 ATP         0.2186
     22 N9         -1.7127   -1.6108    1.2130 N.pl3     1 ATP        -0.1699
     23 C8         -1.7690   -2.9583    0.9549 C.ar      1 ATP         0.4438
     24 N7         -2.8827   -3.3076    0.3418 N.2       1 ATP        -0.6280
     25 C5         -3.5683   -2.1351    0.2017 C.ar      1 ATP         0.2109
     26 C6         -4.8617   -1.9185   -0.4044 C.ar      1 ATP         0.6180
     27 N6         -5.5166   -2.9094   -0.8993 N.2       1 ATP        -0.8319
     28 N1         -5.1837   -0.5701   -0.3344 N.pl3     1 ATP        -0.8664
     29 C2         -4.3821    0.4180    0.2330 C.ar      1 ATP         0.5952
     30 N3         -3.2117    0.2488    0.7860 N.2       1 ATP        -0.5599
     31 C4         -2.8672   -1.0657    0.7327 C.ar      1 ATP         0.0076
     32 HOG3        0.6617    2.8401    8.0045 H         1 ATP         0.4101
     33 H5'1       -1.7771    2.7849    2.1387 H         1 ATP         0.0364
     34 H5'2       -1.1654    2.0541    0.6320 H         1 ATP         0.0364
     35 H4'         0.0403    1.7078    3.4343 H         1 ATP         0.0945
     36 H3'         1.5907    1.4859    1.1353 H         1 ATP         0.0703
     37 HO3'        2.6839   -0.1150    2.2479 H         1 ATP         0.4099
     38 H2'        -0.0017    0.0018    0.0005 H         1 ATP         0.0676
     39 HO2'        2.0953   -0.9375    0.0709 H         1 ATP         0.4291
     40 H1'        -0.1998   -1.6319    2.6178 H         1 ATP         0.0950
     41 H8         -0.9697   -3.6300    1.2371 H         1 ATP         0.1135
     42 HN62       -6.4060   -2.5723   -1.2840 H         1 ATP         0.3588
     43 H2         -4.8409    1.4176    0.1757 H         1 ATP         0.0302
     44 H44        -6.0768   -0.2826   -0.7263 H         1 ATP         0.4215
@<TRIPOS>BOND
     1    1    2 2
     2    1    3 1
     3    1    4 1
     4    1    8 1
     5    4   32 1
     6    5    6 2
     7    5    7 1
     8    5    8 1
     9    5   12 1
    10    9   10 2
    11    9   11 1
    12    9   12 1
    13    9   13 1
    14   13   14 1
    15   14   15 1
    16   14   33 1
    17   14   34 1
    18   15   16 1
    19   15   17 1
    20   15   35 1
    21   16   21 1
    22   17   18 1
    23   17   19 1
    24   17   36 1
    25   18   37 1
    26   19   20 1
    27   19   21 1
    28   19   38 1
    29   20   39 1
    30   21   22 1
    31   21   40 1
    32   22   23 ar
    33   22   31 ar
    34   23   24 ar
    35   23   41 1
    36   24   25 ar
    37   25   26 ar
    38   25   31 ar
    39   26   27 2
    40   26   28 ar
    41   27   42 1
    42   28   29 ar
    43   28   44 1
    44   29   30 ar
    45   29   43 1
    46   30   31 ar
@<TRIPOS>SUBSTRUCTURE
     1 ATP         1 GROUP 0 A     ****
@<TRIPOS>MOLECULE
[[[3,4-dihydroxy-5-(6-imino-1~{H}-purin-9-yl)tetrahydrofuran-2-yl]methoxy-oxido-phosphoryl]oxy-oxido-phosphoryl] hydrogen phosphate
   44    46     1     0     0
SMALL
USER_CHARGES

@<TRIPOS>ATOM
      1 PG          5.6489    3.9726   -5.5975 P.3       1 ATP         1.5257
      2 O1G         6.4793    5.2157   -5.8269 O.co2     1 ATP        -0.8737
      3 O2G         4.4820    3.6399   -6.5004 O.co2     1 ATP        -0.8737
      4 O3G         6.6489    2.6830   -5.5463 O.3       1 ATP        -0.7971
      5 PB          4.0976    4.9431   -3.2748 P.3       1 ATP         1.6824
      6 O1B         4.7163    6.3201   -3.1812 O.co2     1 ATP        -0.8925
      7 O2B         2.7165    4.7429   -3.8580 O.co2     1 ATP        -0.8925
      8 O3B         5.1405    3.9521   -4.0468 O.3       1 ATP        -0.8047
      9 PA          5.4151    4.0218   -0.7908 P.3       1 ATP         1.5908
     10 O1A         5.9087    5.3740   -0.3236 O.co2     1 ATP        -0.8932
     11 O2A         6.3635    3.0302   -1.4286 O.co2     1 ATP        -0.8932
     12 O3A         4.1498    4.2446   -1.8003 O.3       1 ATP        -0.8088
     13 O5'         4.6405    3.2699    0.4378 O.3       1 ATP        -0.5646
     14 C5'         4.0922    1.9801    0.2227 C.3       1 ATP         0.2204
     15 C4'         2.5944    2.0310    0.4653 C.3       1 ATP         0.0965
     16 O4'         1.9327    2.5740   -0.6889 O.3       1 ATP        -0.3907
     17 C3'         1.9685    0.6634    0.6767 C.3       1 ATP         0.0763
     18 O3'         2.1425    0.1975    1.9977 O.3       1 ATP        -0.5884
     19 C2'         0.5176    0.9128    0.3099 C.3       1 ATP         0.0784
     20 O2'        -0.2103    1.4454    1.4152 O.3       1 ATP        -0.6085
     21 C1'         0.6219    1.9765   -0.7844 C.3       1 ATP         0.2186
     22 N9          0.4237    1.4496   -2.1357 N.pl3     1 ATP        -0.1699
     23 C8          1.4069    0.9710   -2.9662 C.ar      1 ATP         0.4438
     24 N7          0.9316    0.5623   -4.1260 N.2       1 ATP        -0.6280
     25 C5         -0.4120    0.7884   -4.0344 C.ar      1 ATP         0.2109
     26 C6         -1.4353    0.5283   -5.0204 C.ar      1 ATP         0.6180
     27 N6         -1.1199    0.0176   -6.1586 N.2       1 ATP        -0.8319
     28 N1         -2.6704    0.9095   -4.5147 N.pl3     1 ATP        -0.8664
     29 C2         -2.8863    1.4571   -3.2520 C.ar      1 ATP         0.5952
     30 N3         -1.9805    1.7017   -2.3442 N.2       1 ATP        -0.5599
     31 C4         -0.7561    1.3381   -2.8112 C.ar      1 ATP         0.0076
     32 HOG3        6.2583    1.7947   -5.4027 H         1 ATP         0.4101
     33 H5'1        4.3028    1.6728   -0.8066 H         1 ATP         0.0364
     34 H5'2        4.5677    1.2738    0.9106 H         1 ATP         0.0364
     35 H4'         2.3752    2.7029    1.3156 H         1 ATP         0.0945
     36 H3'         2.4336   -0.1217   -0.0015 H         1 ATP         0.0703
     37 HO3'        1.7160   -0.6716    2.0397 H         1 ATP         0.4099
     38 H2'         0.0316    0.0155   -0.0339 H         1 ATP         0.0676
     39 HO2'       -0.1608    0.7921    2.1351 H         1 ATP         0.4291
     40 H1'        -0.1474    2.7798   -0.6651 H         1 ATP         0.0950
     41 H8          2.4466    0.9468   -2.6694 H         1 ATP         0.1135
     42 HN62       -1.9661   -0.0965   -6.7275 H         1 ATP         0.3588
     43 H2         -3.9481    1.6825   -3.0660 H         1 ATP         0.0302
     44 H44        -3.4814    0.7753   -5.1133 H         1 ATP         0.4215
@<TRIPOS>BOND
     1    1    2 2
     2    1    3 1
     3    1    4 1
     4    1    8 1
     5    4   32 1
     6    5    6 2
     7    5    7 1
     8    5    8 1
     9    5   12 1
    10    9   10 2
    11    9   11 1
    12    9   12 1
    13    9   13 1
    14   13   14 1
    15   14   15 1
    16   14   33 1
    17   14   34 1
    18   15   16 1
    19   15   17 1
    20   15   35 1
    21   16   21 1
    22   17   18 1
    23   17   19 1
    24   17   36 1
    25   18   37 1
    26   19   20 1
    27   19   21 1
    28   19   38 1
    29   20   39 1
    30   21   22 1
    31   21   40 1
    32   22   23 ar
    33   22   31 ar
    34   23   24 ar
    35   23   41 1
    36   24   25 ar
    37   25   26 ar
    38   25   31 ar
    39   26   27 2
    40   26   28 ar
    41   27   42 1
    42   28   29 ar
    43   28   44 1
    44   29   30 ar
    45   29   43 1
    46   30   31 ar
@<TRIPOS>SUBSTRUCTURE
     1 ATP         1 GROUP 0 A     ****
@<TRIPOS>MOLECULE
[[[3,4-dihydroxy-5-(6-imino-1~{H}-purin-9-yl)tetrahydrofuran-2-yl]methoxy-oxido-phosphoryl]oxy-oxido-phosphoryl] hydrogen phosphate
   44    46     1     0     0
SMALL
USER_CHARGES

@<TRIPOS>ATOM
      1 PG         -5.8981    6.3039    3.1181 P.3       1 ATP         1.5257
      2 O1G        -5.7654    7.7635    3.4913 O.co2     1 ATP        -0.8737
      3 O2G        -6.5671    5.3204    4.0524 O.co2     1 ATP        -0.8737
      4 O3G        -6.6213    6.2056    1.6576 O.3       1 ATP        -0.7971
      5 PB         -3.3505    6.2904    1.6171 P.3       1 ATP         1.6824
      6 O1B        -3.9350    6.1371    0.2306 O.co2     1 ATP        -0.8925
      7 O2B        -2.8244    7.6227    2.1025 O.co2     1 ATP        -0.8925
      8 O3B        -4.4288    5.7255    2.7051 O.3       1 ATP        -0.8047
      9 PA         -0.7385    5.0053    1.0867 P.3       1 ATP         1.5908
     10 O1A         0.1343    6.1787    1.4762 O.co2     1 ATP        -0.8932
     11 O2A        -0.9779    4.6690   -0.3691 O.co2     1 ATP        -0.8932
     12 O3A        -2.1887    5.1621    1.8228 O.3       1 ATP        -0.8088
     13 O5'        -0.2062    3.6557    1.8417 O.3       1 ATP        -0.5646
     14 C5'        -0.8811    2.4285    1.6206 C.3       1 ATP         0.2204
     15 C4'        -0.1994    1.3333    2.4288 C.3       1 ATP         0.0965
     16 O4'        -1.1285    0.2356    2.5840 O.3       1 ATP        -0.3907
     17 C3'         1.0324    0.7610    1.7344 C.3       1 ATP         0.0763
     18 O3'         1.9175    0.2377    2.7247 O.3       1 ATP        -0.5884
     19 C2'         0.4468   -0.3802    0.9263 C.3       1 ATP         0.0784
     20 O2'         1.3993   -1.3703    0.5961 O.3       1 ATP        -0.6085
     21 C1'        -0.6159   -0.9100    1.8769 C.3       1 ATP         0.2186
     22 N9         -1.7127   -1.6108    1.2130 N.pl3     1 ATP        -0.1699
     23 C8         -1.7690   -2.9583    0.9549 C.ar      1 ATP         0.4438
     24 N7         -2.8827   -3.3076    0.3418 N.2       1 ATP        -0.6280
     25 C5         -3.5683   -2.1351    0.2017 C.ar      1 ATP         0.2109
     26 C6         -4.8617   -1.9185   -0.4044 C.ar      1 ATP         0.6180
     27 N6         -5.5166   -2.9094   -0.8993 N.2       1 ATP        -0.8319
     28 N1         -5.1837   -0.5701   -0.3344 N.pl3     1 ATP        -0.8664
     29 C2         -4.3821    0.4180    0.2330 C.ar      1 ATP         0.5952
     30 N3         -3.2117    0.2488    0.7860 N.2       1 ATP        -0.5599
     31 C4         -2.8672   -1.0657    0.7327 C.ar      1 ATP         0.0076
     32 HOG3       -6.7799    5.3168    1.2739 H         1 ATP         0.4101
     33 H5'1       -1.9256    2.5380    1.9293 H         1 ATP         0.0364
     34 H5'2       -0.8474    2.1930    0.5521 H         1 ATP         0.0364
     35 H4'         0.0403    1.7078    3.4343 H         1 ATP         0.0945
     36 H3'         1.5907    1.4859    1.1353 H         1 ATP         0.0703
     37 HO3'        2.6839   -0.1150    2.2479 H         1 ATP         0.4099
     38 H2'        -0.0017    0.0018    0.0005 H         1 ATP         0.0676
     39 HO2'        2.0953   -0.9375    0.0709 H         1 ATP         0.4291
     40 H1'        -0.1998   -1.6319    2.6178 H         1 ATP         0.0950
     41 H8         -0.9697   -3.6300    1.2371 H         1 ATP         0.1135
     42 HN62       -6.4060   -2.5723   -1.2840 H         1 ATP         0.3588
     43 H2         -4.8409    1.4176    0.1757 H         1 ATP         0.0302
     44 H44        -6.0768   -0.2826   -0.7263 H         1 ATP         0.4215
@<TRIPOS>BOND
     1    1    2 2
     2    1    3 1
     3    1    4 1
     4    1    8 1
     5    4   32 1
     6    5    6 2
     7    5    7 1
     8    5    8 1
     9    5   12 1
    10    9   10 2
    11    9   11 1
    12    9   12 1
    13    9   13 1
    14   13   14 1
    15   14   15 1
    16   14   33 1
    17   14   34 1
    18   15   16 1
    19   15   17 1
    20   15   35 1
    21   16   21 1
    22   17   18 1
    23   17   19 1
    24   17   36 1
    25   18   37 1
    26   19   20 1
    27   19   21 1
    28   19   38 1
    29   20   39 1
    30   21   22 1
    31   21   40 1
    32   22   23 ar
    33   22   31 ar
    34   23   24 ar
    35   23   41 1
    36   24   25 ar
    37   25   26 ar
    38   25   31 ar
    39   26   27 2
    40   26   28 ar
    41   27   42 1
    42   28   29 ar
    43   28   44 1
    44   29   30 ar
    45   29   43 1
    46   30   31 ar
@<TRIPOS>SUBSTRUCTURE
     1 ATP         1 GROUP 0 A     ****
@<TRIPOS>MOLECULE
[[[3,4-dihydroxy-5-(6-imino-1~{H}-purin-9-yl)tetrahydrofuran-2-yl]methoxy-oxido-phosphoryl]oxy-oxido-phosphoryl] hydrogen phosphate
   44    46     1     0     0
SMALL
USER_CHARGES

@<TRIPOS>ATOM
      1 PG         -1.3823    8.8869   -1.2046 P.3       1 ATP         1.5257
      2 O1G        -0.0471    9.5791   -1.0443 O.co2     1 ATP        -0.8737
      3 O2G        -2.6651    9.5638   -0.7758 O.co2     1 ATP        -0.8737
      4 O3G        -1.5392    8.4167   -2.7603 O.3       1 ATP        -0.7971
      5 PB         -2.3895    6.1938   -0.5145 P.3       1 ATP         1.6824
      6 O1B        -3.6121    6.6295    0.2619 O.co2     1 ATP        -0.8925
      7 O2B        -2.5067    5.6563   -1.9234 O.co2     1 ATP        -0.8925
      8 O3B        -1.3036    7.4130   -0.5082 O.3       1 ATP        -0.8047
      9 PA         -0.0889    4.4444    0.1193 P.3       1 ATP         1.5908
     10 O1A         0.9661    5.5282    0.1728 O.co2     1 ATP        -0.8932
     11 O2A        -0.2001    3.5318   -1.0825 O.co2     1 ATP        -0.8932
     12 O3A        -1.5516    5.1216    0.3871 O.3       1 ATP        -0.8088
     13 O5'         0.0178    3.5131    1.4595 O.3       1 ATP        -0.5646
     14 C5'        -0.8811    2.4285    1.6206 C.3       1 ATP         0.2204
     15 C4'        -0.1994    1.3333    2.4288 C.3       1 ATP         0.0965
     16 O4'        -1.1285    0.2356    2.5840 O.3       1 ATP        -0.3907
     17 C3'         1.0324    0.7610    1.7344 C.3       1 ATP         0.0763
     18 O3'         1.9175    0.2377    2.7247 O.3       1 ATP        -0.5884
     19 C2'         0.4468   -0.3802    0.9263 C.3       1 ATP         0.0784
     20 O2'         1.3993   -1.3703    0.5961 O.3       1 ATP        -0.6085
     21 C1'        -0.6159   -0.9100    1.8769 C.3       1 ATP         0.2186
     22 N9         -1.7127   -1.6108    1.2130 N.pl3     1 ATP        -0.1699
     23 C8         -1.7690   -2.9583    0.9549 C.ar      1 ATP         0.4438
     24 N7         -2.8827   -3.3076    0.3418 N.2       1 ATP        -0.6280
     25 C5         -3.5683   -2.1351    0.2017 C.ar      1 ATP         0.2109
     26 C6         -4.8617   -1.9185   -0.4044 C.ar      1 ATP         0.6180
     27 N6         -5.5166   -2.9094   -0.8993 N.2       1 ATP        -0.8319
     28 N1         -5.1837   -0.5701   -0.3344 N.pl3     1 ATP        -0.8664
     29 C2         -4.3821    0.4180    0.2330 C.ar      1 ATP         0.5952
     30 N3         -3.2117    0.2488    0.7860 N.2       1 ATP        -0.5599
     31 C4         -2.8672   -1.0657    0.7327 C.ar      1 ATP         0.0076
     32 HOG3       -2.3596    7.9491   -3.0262 H         1 ATP         0.4101
     33 H5'1       -1.7771    2.7849    2.1387 H         1 ATP         0.0364
     34 H5'2       -1.1654    2.0541    0.6320 H         1 ATP         0.0364
     35 H4'         0.0403    1.7078    3.4343 H         1 ATP         0.0945
     36 H3'         1.5907    1.4859    1.1353 H         1 ATP         0.0703
     37 HO3'        2.6839   -0.1150    2.2479 H         1 ATP         0.4099
     38 H2'        -0.0017    0.0018    0.0005 H         1 ATP         0.0676
     39 HO2'        2.0953   -0.9375    0.0709 H         1 ATP         0.4291
     40 H1'        -0.1998   -1.6319    2.6178 H         1 ATP         0.0950
     41 H8         -0.9697   -3.6300    1.2371 H         1 ATP         0.1135
     42 HN62       -6.4060   -2.5723   -1.2840 H         1 ATP         0.3588
     43 H2         -4.8409    1.4176    0.1757 H         1 ATP         0.0302
     44 H44        -6.0768   -0.2826   -0.7263 H         1 ATP         0.4215
@<TRIPOS>BOND
     1    1    2 2
     2    1    3 1
     3    1    4 1
     4    1    8 1
     5    4   32 1
     6    5    6 2
     7    5    7 1
     8    5    8 1
     9    5   12 1
    10    9   10 2
    11    9   11 1
    12    9   12 1
    13    9   13 1
    14   13   14 1
    15   14   15 1
    16   14   33 1
    17   14   34 1
    18   15   16 1
    19   15   17 1
    20   15   35 1
    21   16   21 1
    22   17   18 1
    23   17   19 1
    24   17   36 1
    25   18   37 1
    26   19   20 1
    27   19   21 1
    28   19   38 1
    29   20   39 1
    30   21   22 1
    31   21   40 1
    32   22   23 ar
    33   22   31 ar
    34   23   24 ar
    35   23   41 1
    36   24   25 ar
    37   25   26 ar
    38   25   31 ar
    39   26   27 2
    40   26   28 ar
    41   27   42 1
    42   28   29 ar
    43   28   44 1
    44   29   30 ar
    45   29   43 1
    46   30   31 ar
@<TRIPOS>SUBSTRUCTURE
     1 ATP         1 GROUP 0 A     ****
@<TRIPOS>MOLECULE
[[[3,4-dihydroxy-5-(6-imino-1~{H}-purin-9-yl)tetrahydrofuran-2-yl]methoxy-oxido-phosphoryl]oxy-oxido-phosphoryl] hydrogen phosphate
   44    46     1     0     0
SMALL
USER_CHARGES

@<TRIPOS>ATOM
      1 PG          5.9941   -3.0505   -0.7005 P.3       1 ATP         1.5257
      2 O1G         4.7027   -2.3749   -0.2962 O.co2     1 ATP        -0.8737
      3 O2G         6.6507   -4.0737    0.1992 O.co2     1 ATP        -0.8737
      4 O3G         5.7919   -3.7137   -2.1787 O.3       1 ATP        -0.7971
      5 PB          7.8236   -0.7942   -0.1473 P.3       1 ATP         1.6824
      6 O1B         8.4565   -1.4987    1.0319 O.co2     1 ATP        -0.8925
      7 O2B         8.6281    0.1351   -1.0286 O.co2     1 ATP        -0.8925
      8 O3B         7.0919   -1.9076   -1.0910 O.3       1 ATP        -0.8047
      9 PA          6.3565    1.2771    1.3734 P.3       1 ATP         1.5908
     10 O1A         6.9879    2.4828    0.7118 O.co2     1 ATP        -0.8932
     11 O2A         6.7839    0.8423    2.7584 O.co2     1 ATP        -0.8932
     12 O3A         6.4914   -0.0042    0.3685 O.3       1 ATP        -0.8088
     13 O5'         4.7294    1.4427    1.3696 O.3       1 ATP        -0.5646
     14 C5'         4.0922    1.9801    0.2227 C.3       1 ATP         0.2204
     15 C4'         2.5944    2.0310    0.4653 C.3       1 ATP         0.0965
     16 O4'         1.9327    2.5740   -0.6889 O.3       1 ATP        -0.3907
     17 C3'         1.9685    0.6634    0.6767 C.3       1 ATP         0.0763
     18 O3'         2.1425    0.1975    1.9977 O.3       1 ATP        -0.5884
     19 C2'         0.5176    0.9128    0.3099 C.3       1 ATP         0.0784
     20 O2'        -0.2103    1.4454    1.4152 O.3       1 ATP        -0.6085
     21 C1'         0.6219    1.9765   -0.7844 C.3       1 ATP         0.2186
     22 N9          0.4237    1.4496   -2.1357 N.pl3     1 ATP        -0.1699
     23 C8          1.4069    0.9710   -2.9662 C.ar      1 ATP         0.4438
     24 N7          0.9316    0.5623   -4.1260 N.2       1 ATP        -0.6280
     25 C5         -0.4120    0.7884   -4.0344 C.ar      1 ATP         0.2109
     26 C6         -1.4353    0.5283   -5.0204 C.ar      1 ATP         0.6180
     27 N6         -1.1199    0.0176   -6.1586 N.2       1 ATP        -0.8319
     28 N1         -2.6704    0.9095   -4.5147 N.pl3     1 ATP        -0.8664
     29 C2         -2.8863    1.4571   -3.2520 C.ar      1 ATP         0.5952
     30 N3         -1.9805    1.7017   -2.3442 N.2       1 ATP        -0.5599
     31 C4         -0.7561    1.3381   -2.8112 C.ar      1 ATP         0.0076
     32 HOG3        6.5467   -4.1923   -2.5829 H         1 ATP         0.4101
     33 H5'1        4.4843    2.9854    0.0380 H         1 ATP         0.0364
     34 H5'2        4.3191    1.3446   -0.6392 H         1 ATP         0.0364
     35 H4'         2.3752    2.7029    1.3156 H         1 ATP         0.0945
     36 H3'         2.4336   -0.1217   -0.0015 H         1 ATP         0.0703
     37 HO3'        1.7160   -0.6716    2.0397 H         1 ATP         0.4099
     38 H2'         0.0316    0.0155   -0.0339 H         1 ATP         0.0676
     39 HO2'       -1.1270    1.5823    1.1180 H         1 ATP         0.4291
     40 H1'        -0.1474    2.7798   -0.6651 H         1 ATP         0.0950
     41 H8          2.4466    0.9468   -2.6694 H         1 ATP         0.1135
     42 HN62       -1.9661   -0.0965   -6.7275 H         1 ATP         0.3588
     43 H2         -3.9481    1.6825   -3.0660 H         1 ATP         0.0302
     44 H44        -3.4814    0.7753   -5.1133 H         1 ATP         0.4215
@<TRIPOS>BOND
     1    1    2 2
     2    1    3 1
     3    1    4 1
     4    1    8 1
     5    4   32 1
     6    5    6 2
     7    5    7 1
     8    5    8 1
     9    5   12 1
    10    9   10 2
    11    9   11 1
    12    9   12 1
    13    9   13 1
    14   13   14 1
    15   14   15 1
    16   14   33 1
    17   14   34 1
    18   15   16 1
    19   15   17 1
    20   15   35 1
    21   16   21 1
    22   17   18 1
    23   17   19 1
    24   17   36 1
    25   18   37 1
    26   19   20 1
    27   19   21 1
    28   19   38 1
    29   20   39 1
    30   21   22 1
    31   21   40 1
    32   22   23 ar
    33   22   31 ar
    34   23   24 ar
    35   23   41 1
    36   24   25 ar
    37   25   26 ar
    38   25   31 ar
    39   26   27 2
    40   26   28 ar
    41   27   42 1
    42   28   29 ar
    43   28   44 1
    44   29   30 ar
    45   29   43 1
    46   30   31 ar
@<TRIPOS>SUBSTRUCTURE
     1 ATP         1 GROUP 0 A     ****
@<TRIPOS>MOLECULE
[[[3,4-dihydroxy-5-(6-imino-1~{H}-purin-9-yl)tetrahydrofuran-2-yl]methoxy-oxido-phosphoryl]oxy-oxido-phosphoryl] hydrogen phosphate
   44    46     1     0     0
SMALL
USER_CHARGES

@<TRIPOS>ATOM
      1 PG         -0.3774    8.7542    1.6391 P.3       1 ATP         1.5257
      2 O1G        -0.2858    9.2974    0.2306 O.co2     1 ATP        -0.8737
      3 O2G         0.8274    8.7579    2.5536 O.co2     1 ATP        -0.8737
      4 O3G        -1.6112    9.5015    2.4041 O.3       1 ATP        -0.7971
      5 PB         -2.3698    6.7018    0.8897 P.3       1 ATP         1.6824
      6 O1B        -3.5532    7.2937    1.6224 O.co2     1 ATP        -0.8925
      7 O2B        -2.2343    6.8291   -0.6112 O.co2     1 ATP        -0.8925
      8 O3B        -0.9973    7.2453    1.5872 O.3       1 ATP        -0.8047
      9 PA         -2.1561    4.4278    2.7707 P.3       1 ATP         1.5908
     10 O1A        -3.4710    4.6479    3.4867 O.co2     1 ATP        -0.8932
     11 O2A        -0.8475    4.8296    3.4155 O.co2     1 ATP        -0.8932
     12 O3A        -2.2377    5.1262    1.2959 O.3       1 ATP        -0.8088
     13 O5'        -2.0401    2.8620    2.3128 O.3       1 ATP        -0.5646
     14 C5'        -0.8811    2.4285    1.6206 C.3       1 ATP         0.2204
     15 C4'        -0.1994    1.3333    2.4288 C.3       1 ATP         0.0965
     16 O4'        -1.1285    0.2356    2.5840 O.3       1 ATP        -0.3907
     17 C3'         1.0324    0.7610    1.7344 C.3       1 ATP         0.0763
     18 O3'         1.9175    0.2377    2.7247 O.3       1 ATP        -0.5884
     19 C2'         0.4468   -0.3802    0.9263 C.3       1 ATP         0.0784
     20 O2'         1.3993   -1.3703    0.5961 O.3       1 ATP        -0.6085
     21 C1'        -0.6159   -0.9100    1.8769 C.3       1 ATP         0.2186
     22 N9         -1.7127   -1.6108    1.2130 N.pl3     1 ATP        -0.1699
     23 C8         -1.7690   -2.9583    0.9549 C.ar      1 ATP         0.4438
     24 N7         -2.8827   -3.3076    0.3418 N.2       1 ATP        -0.6280
     25 C5         -3.5683   -2.1351    0.2017 C.ar      1 ATP         0.2109
     26 C6         -4.8617   -1.9185   -0.4044 C.ar      1 ATP         0.6180
     27 N6         -5.5166   -2.9094   -0.8993 N.2       1 ATP        -0.8319
     28 N1         -5.1837   -0.5701   -0.3344 N.pl3     1 ATP        -0.8664
     29 C2         -4.3821    0.4180    0.2330 C.ar      1 ATP         0.5952
     30 N3         -3.2117    0.2488    0.7860 N.2       1 ATP        -0.5599
     31 C4         -2.8672   -1.0657    0.7327 C.ar      1 ATP         0.0076
     32 HOG3       -1.8007    9.2561    3.3348 H         1 ATP         0.4101
     33 H5'1       -1.1767    2.0502    0.6368 H         1 ATP         0.0364
     34 H5'2       -0.2080    3.2814    1.4876 H         1 ATP         0.0364
     35 H4'         0.0403    1.7078    3.4343 H         1 ATP         0.0945
     36 H3'         1.5907    1.4859    1.1353 H         1 ATP         0.0703
     37 HO3'        2.6839   -0.1150    2.2479 H         1 ATP         0.4099
     38 H2'        -0.0017    0.0018    0.0005 H         1 ATP         0.0676
     39 HO2'        2.0953   -0.9375    0.0709 H         1 ATP         0.4291
     40 H1'        -0.1998   -1.6319    2.6178 H         1 ATP         0.0950
     41 H8         -0.9697   -3.6300    1.2371 H         1 ATP         0.1135
     42 HN62       -6.4060   -2.5723   -1.2840 H         1 ATP         0.3588
     43 H2         -4.8409    1.4176    0.1757 H         1 ATP         0.0302
     44 H44        -6.0768   -0.2826   -0.7263 H         1 ATP         0.4215
@<TRIPOS>BOND
     1    1    2 2
     2    1    3 1
     3    1    4 1
     4    1    8 1
     5    4   32 1
     6    5    6 2
     7    5    7 1
     8    5    8 1
     9    5   12 1
    10    9   10 2
    11    9   11 1
    12    9   12 1
    13    9   13 1
    14   13   14 1
    15   14   15 1
    16   14   33 1
    17   14   34 1
    18   15   16 1
    19   15   17 1
    20   15   35 1
    21   16   21 1
    22   17   18 1
    23   17   19 1
    24   17   36 1
    25   18   37 1
    26   19   20 1
    27   19   21 1
    28   19   38 1
    29   20   39 1
    30   21   22 1
    31   21   40 1
    32   22   23 ar
    33   22   31 ar
    34   23   24 ar
    35   23   41 1
    36   24   25 ar
    37   25   26 ar
    38   25   31 ar
    39   26   27 2
    40   26   28 ar
    41   27   42 1
    42   28   29 ar
    43   28   44 1
    44   29   30 ar
    45   29   43 1
    46   30   31 ar
@<TRIPOS>SUBSTRUCTURE
     1 ATP         1 GROUP 0 A     ****
@<TRIPOS>MOLECULE
[[[3,4-dihydroxy-5-(6-imino-1~{H}-purin-9-yl)tetrahydrofuran-2-yl]methoxy-oxido-phosphoryl]oxy-oxido-phosphoryl] hydrogen phosphate
   44    46     1     0     0
SMALL
USER_CHARGES

@<TRIPOS>ATOM
      1 PG         -4.6330    8.4167    1.7149 P.3       1 ATP         1.5257
      2 O1G        -5.7913    8.2350    2.6703 O.co2     1 ATP        -0.8737
      3 O2G        -4.8569    8.9336    0.3112 O.co2     1 ATP        -0.8737
      4 O3G        -3.5061    9.3513    2.4378 O.3       1 ATP        -0.7971
      5 PB         -2.3698    6.7018    0.8897 P.3       1 ATP         1.6824
      6 O1B        -2.5769    6.8015   -0.6051 O.co2     1 ATP        -0.8925
      7 O2B        -1.2694    7.4752    1.5814 O.co2     1 ATP        -0.8925
      8 O3B        -3.7853    7.0242    1.6368 O.3       1 ATP        -0.8047
      9 PA         -2.1561    4.4278    2.7707 P.3       1 ATP         1.5908
     10 O1A        -3.4710    4.6479    3.4867 O.co2     1 ATP        -0.8932
     11 O2A        -0.8475    4.8296    3.4155 O.co2     1 ATP        -0.8932
     12 O3A        -2.2377    5.1262    1.2959 O.3       1 ATP        -0.8088
     13 O5'        -2.0401    2.8620    2.3128 O.3       1 ATP        -0.5646
     14 C5'        -0.8811    2.4285    1.6206 C.3       1 ATP         0.2204
     15 C4'        -0.1994    1.3333    2.4288 C.3       1 ATP         0.0965
     16 O4'        -1.1285    0.2356    2.5840 O.3       1 ATP        -0.3907
     17 C3'         1.0324    0.7610    1.7344 C.3       1 ATP         0.0763
     18 O3'         1.9175    0.2377    2.7247 O.3       1 ATP        -0.5884
     19 C2'         0.4468   -0.3802    0.9263 C.3       1 ATP         0.0784
     20 O2'         1.3993   -1.3703    0.5961 O.3       1 ATP        -0.6085
     21 C1'        -0.6159   -0.9100    1.8769 C.3       1 ATP         0.2186
     22 N9         -1.7127   -1.6108    1.2130 N.pl3     1 ATP        -0.1699
     23 C8         -1.7690   -2.9583    0.9549 C.ar      1 ATP         0.4438
     24 N7         -2.8827   -3.3076    0.3418 N.2       1 ATP        -0.6280
     25 C5         -3.5683   -2.1351    0.2017 C.ar      1 ATP         0.2109
     26 C6         -4.8617   -1.9185   -0.4044 C.ar      1 ATP         0.6180
     27 N6         -5.5166   -2.9094   -0.8993 N.2       1 ATP        -0.8319
     28 N1         -5.1837   -0.5701   -0.3344 N.pl3     1 ATP        -0.8664
     29 C2         -4.3821    0.4180    0.2330 C.ar      1 ATP         0.5952
     30 N3         -3.2117    0.2488    0.7860 N.2       1 ATP        -0.5599
     31 C4         -2.8672   -1.0657    0.7327 C.ar      1 ATP         0.0076
     32 HOG3       -2.6865    9.5624    1.9419 H         1 ATP         0.4101
     33 H5'1       -1.1767    2.0502    0.6368 H         1 ATP         0.0364
     34 H5'2       -0.2080    3.2814    1.4876 H         1 ATP         0.0364
     35 H4'         0.0403    1.7078    3.4343 H         1 ATP         0.0945
     36 H3'         1.5907    1.4859    1.1353 H         1 ATP         0.0703
     37 HO3'        2.6839   -0.1150    2.2479 H         1 ATP         0.4099
     38 H2'        -0.0017    0.0018    0.0005 H         1 ATP         0.0676
     39 HO2'        2.0953   -0.9375    0.0709 H         1 ATP         0.4291
     40 H1'        -0.1998   -1.6319    2.6178 H         1 ATP         0.0950
     41 H8         -0.9697   -3.6300    1.2371 H         1 ATP         0.1135
     42 HN62       -6.4060   -2.5723   -1.2840 H         1 ATP         0.3588
     43 H2         -4.8409    1.4176    0.1757 H         1 ATP         0.0302
     44 H44        -6.0768   -0.2826   -0.7263 H         1 ATP         0.4215
@<TRIPOS>BOND
     1    1    2 2
     2    1    3 1
     3    1    4 1
     4    1    8 1
     5    4   32 1
     6    5    6 2
     7    5    7 1
     8    5    8 1
     9    5   12 1
    10    9   10 2
    11    9   11 1
    12    9   12 1
    13    9   13 1
    14   13   14 1
    15   14   15 1
    16   14   33 1
    17   14   34 1
    18   15   16 1
    19   15   17 1
    20   15   35 1
    21   16   21 1
    22   17   18 1
    23   17   19 1
    24   17   36 1
    25   18   37 1
    26   19   20 1
    27   19   21 1
    28   19   38 1
    29   20   39 1
    30   21   22 1
    31   21   40 1
    32   22   23 ar
    33   22   31 ar
    34   23   24 ar
    35   23   41 1
    36   24   25 ar
    37   25   26 ar
    38   25   31 ar
    39   26   27 2
    40   26   28 ar
    41   27   42 1
    42   28   29 ar
    43   28   44 1
    44   29   30 ar
    45   29   43 1
    46   30   31 ar
@<TRIPOS>SUBSTRUCTURE
     1 ATP         1 GROUP 0 A     ****
@<TRIPOS>MOLECULE
[[[3,4-dihydroxy-5-(6-imino-1~{H}-purin-9-yl)tetrahydrofuran-2-yl]methoxy-oxido-phosphoryl]oxy-oxido-phosphoryl] hydrogen phosphate
   44    46     1     0     0
SMALL
USER_CHARGES

@<TRIPOS>ATOM
      1 PG          4.0048    4.6979   -2.0413 P.3       1 ATP         1.5257
      2 O1G         5.1471    4.0696   -1.2746 O.co2     1 ATP        -0.8737
      3 O2G         3.8531    6.2009   -2.1169 O.co2     1 ATP        -0.8737
      4 O3G         4.0091    4.1002   -3.5607 O.3       1 ATP        -0.7971
      5 PB          1.0836    4.2436   -2.1020 P.3       1 ATP         1.6824
      6 O1B         0.6529    5.6735   -1.8621 O.co2     1 ATP        -0.8925
      7 O2B         1.0056    3.6225   -3.4788 O.co2     1 ATP        -0.8925
      8 O3B         2.5987    4.0496   -1.5253 O.3       1 ATP        -0.8047
      9 PA         -1.2907    2.9172   -0.9365 P.3       1 ATP         1.5908
     10 O1A        -1.6999    2.1404   -2.1692 O.co2     1 ATP        -0.8932
     11 O2A        -2.0348    4.1703   -0.5295 O.co2     1 ATP        -0.8932
     12 O3A         0.2994    3.2768   -1.0460 O.3       1 ATP        -0.8088
     13 O5'        -1.2434    1.9104    0.3515 O.3       1 ATP        -0.5646
     14 C5'        -0.8811    2.4285    1.6206 C.3       1 ATP         0.2204
     15 C4'        -0.1994    1.3333    2.4288 C.3       1 ATP         0.0965
     16 O4'        -1.1285    0.2356    2.5840 O.3       1 ATP        -0.3907
     17 C3'         1.0324    0.7610    1.7344 C.3       1 ATP         0.0763
     18 O3'         1.9175    0.2377    2.7247 O.3       1 ATP        -0.5884
     19 C2'         0.4468   -0.3802    0.9263 C.3       1 ATP         0.0784
     20 O2'         1.3993   -1.3703    0.5961 O.3       1 ATP        -0.6085
     21 C1'        -0.6159   -0.9100    1.8769 C.3       1 ATP         0.2186
     22 N9         -1.7127   -1.6108    1.2130 N.pl3     1 ATP        -0.1699
     23 C8         -2.8662   -1.0361    0.7388 C.ar      1 ATP         0.4438
     24 N7         -3.6774   -1.9166    0.1867 N.2       1 ATP        -0.6280
     25 C5         -3.0159   -3.1045    0.3122 C.ar      1 ATP         0.2109
     26 C6         -3.4377   -4.4169   -0.1199 C.ar      1 ATP         0.6180
     27 N6         -4.5720   -4.5691   -0.7080 N.2       1 ATP        -0.8319
     28 N1         -2.4600   -5.3463    0.2071 N.pl3     1 ATP        -0.8664
     29 C2         -1.2595   -5.0554    0.8515 C.ar      1 ATP         0.5952
     30 N3         -0.8555   -3.8803    1.2516 N.2       1 ATP        -0.5599
     31 C4         -1.7946   -2.9457    0.9448 C.ar      1 ATP         0.0076
     32 HOG3        3.3224    4.4130   -4.1874 H         1 ATP         0.4101
     33 H5'1       -0.2033    3.2760    1.4769 H         1 ATP         0.0364
     34 H5'2       -1.7841    2.7762    2.1323 H         1 ATP         0.0364
     35 H4'         0.0403    1.7078    3.4343 H         1 ATP         0.0945
     36 H3'         1.5907    1.4859    1.1353 H         1 ATP         0.0703
     37 HO3'        2.6839   -0.1150    2.2479 H         1 ATP         0.4099
     38 H2'        -0.0017    0.0018    0.0005 H         1 ATP         0.0676
     39 HO2'        2.0953   -0.9375    0.0709 H         1 ATP         0.4291
     40 H1'        -0.1998   -1.6319    2.6178 H         1 ATP         0.0950
     41 H8         -3.0558    0.0252    0.8256 H         1 ATP         0.1135
     42 HN62       -4.7047   -5.5592   -0.9421 H         1 ATP         0.3588
     43 H2         -0.6372   -5.9505    1.0077 H         1 ATP         0.0302
     44 H44        -2.6338   -6.3155   -0.0469 H         1 ATP         0.4215
@<TRIPOS>BOND
     1    1    2 2
     2    1    3 1
     3    1    4 1
     4    1    8 1
     5    4   32 1
     6    5    6 2
     7    5    7 1
     8    5    8 1
     9    5   12 1
    10    9   10 2
    11    9   11 1
    12    9   12 1
    13    9   13 1
    14   13   14 1
    15   14   15 1
    16   14   33 1
    17   14   34 1
    18   15   16 1
    19   15   17 1
    20   15   35 1
    21   16   21 1
    22   17   18 1
    23   17   19 1
    24   17   36 1
    25   18   37 1
    26   19   20 1
    27   19   21 1
    28   19   38 1
    29   20   39 1
    30   21   22 1
    31   21   40 1
    32   22   23 ar
    33   22   31 ar
    34   23   24 ar
    35   23   41 1
    36   24   25 ar
    37   25   26 ar
    38   25   31 ar
    39   26   27 2
    40   26   28 ar
    41   27   42 1
    42   28   29 ar
    43   28   44 1
    44   29   30 ar
    45   29   43 1
    46   30   31 ar
@<TRIPOS>SUBSTRUCTURE
     1 ATP         1 GROUP 0 A     ****
@<TRIPOS>MOLECULE
[[[3,4-dihydroxy-5-(6-imino-1~{H}-purin-9-yl)tetrahydrofuran-2-yl]methoxy-oxido-phosphoryl]oxy-oxido-phosphoryl] hydrogen phosphate
   44    46     1     0     0
SMALL
USER_CHARGES

@<TRIPOS>ATOM
      1 PG         -0.3774    8.7542    1.6391 P.3       1 ATP         1.5257
      2 O1G        -0.2858    9.2974    0.2306 O.co2     1 ATP        -0.8737
      3 O2G         0.8274    8.7579    2.5536 O.co2     1 ATP        -0.8737
      4 O3G        -1.6112    9.5015    2.4041 O.3       1 ATP        -0.7971
      5 PB         -2.3698    6.7018    0.8897 P.3       1 ATP         1.6824
      6 O1B        -3.5532    7.2937    1.6224 O.co2     1 ATP        -0.8925
      7 O2B        -2.2343    6.8291   -0.6112 O.co2     1 ATP        -0.8925
      8 O3B        -0.9973    7.2453    1.5872 O.3       1 ATP        -0.8047
      9 PA         -2.1561    4.4278    2.7707 P.3       1 ATP         1.5908
     10 O1A        -3.4710    4.6479    3.4867 O.co2     1 ATP        -0.8932
     11 O2A        -0.8475    4.8296    3.4155 O.co2     1 ATP        -0.8932
     12 O3A        -2.2377    5.1262    1.2959 O.3       1 ATP        -0.8088
     13 O5'        -2.0401    2.8620    2.3128 O.3       1 ATP        -0.5646
     14 C5'        -0.8811    2.4285    1.6206 C.3       1 ATP         0.2204
     15 C4'        -0.1994    1.3333    2.4288 C.3       1 ATP         0.0965
     16 O4'        -1.1285    0.2356    2.5840 O.3       1 ATP        -0.3907
     17 C3'         1.0324    0.7610    1.7344 C.3       1 ATP         0.0763
     18 O3'         1.9175    0.2377    2.7247 O.3       1 ATP        -0.5884
     19 C2'         0.4468   -0.3802    0.9263 C.3       1 ATP         0.0784
     20 O2'         1.3993   -1.3703    0.5961 O.3       1 ATP        -0.6085
     21 C1'        -0.6159   -0.9100    1.8769 C.3       1 ATP         0.2186
     22 N9         -1.7127   -1.6108    1.2130 N.pl3     1 ATP        -0.1699
     23 C8         -2.5485   -1.0808    0.2609 C.ar      1 ATP         0.4438
     24 N7         -3.4476   -1.9486   -0.1593 N.2       1 ATP        -0.6280
     25 C5         -3.1762   -3.0816    0.5530 C.ar      1 ATP         0.2109
     26 C6         -3.8510   -4.3579    0.5006 C.ar      1 ATP         0.6180
     27 N6         -4.8468   -4.5293   -0.2961 N.2       1 ATP        -0.8319
     28 N1         -3.2499   -5.2342    1.3937 N.pl3     1 ATP        -0.8664
     29 C2         -2.1646   -4.9275    2.2116 C.ar      1 ATP         0.5952
     30 N3         -1.5382   -3.7840    2.2778 N.2       1 ATP        -0.5599
     31 C4         -2.1054   -2.9018    1.4120 C.ar      1 ATP         0.0076
     32 HOG3       -1.8007    9.2561    3.3348 H         1 ATP         0.4101
     33 H5'1       -1.1767    2.0502    0.6368 H         1 ATP         0.0364
     34 H5'2       -0.2080    3.2814    1.4876 H         1 ATP         0.0364
     35 H4'         0.0403    1.7078    3.4343 H         1 ATP         0.0945
     36 H3'         1.5907    1.4859    1.1353 H         1 ATP         0.0703
     37 HO3'        2.6839   -0.1150    2.2479 H         1 ATP         0.4099
     38 H2'        -0.0017    0.0018    0.0005 H         1 ATP         0.0676
     39 HO2'        2.0953   -0.9375    0.0709 H         1 ATP         0.4291
     40 H1'        -0.1998   -1.6319    2.6178 H         1 ATP         0.0950
     41 H8         -2.4515   -0.0599   -0.0829 H         1 ATP         0.1135
     42 HN62       -5.1990   -5.4882   -0.2005 H         1 ATP         0.3588
     43 H2         -1.8555   -5.7783    2.8388 H         1 ATP         0.0302
     44 H44        -3.6312   -6.1750    1.4526 H         1 ATP         0.4215
@<TRIPOS>BOND
     1    1    2 2
     2    1    3 1
     3    1    4 1
     4    1    8 1
     5    4   32 1
     6    5    6 2
     7    5    7 1
     8    5    8 1
     9    5   12 1
    10    9   10 2
    11    9   11 1
    12    9   12 1
    13    9   13 1
    14   13   14 1
    15   14   15 1
    16   14   33 1
    17   14   34 1
    18   15   16 1
    19   15   17 1
    20   15   35 1
    21   16   21 1
    22   17   18 1
    23   17   19 1
    24   17   36 1
    25   18   37 1
    26   19   20 1
    27   19   21 1
    28   19   38 1
    29   20   39 1
    30   21   22 1
    31   21   40 1
    32   22   23 ar
    33   22   31 ar
    34   23   24 ar
    35   23   41 1
    36   24   25 ar
    37   25   26 ar
    38   25   31 ar
    39   26   27 2
    40   26   28 ar
    41   27   42 1
    42   28   29 ar
    43   28   44 1
    44   29   30 ar
    45   29   43 1
    46   30   31 ar
@<TRIPOS>SUBSTRUCTURE
     1 ATP         1 GROUP 0 A     ****
@<TRIPOS>MOLECULE
[[[3,4-dihydroxy-5-(6-imino-1~{H}-purin-9-yl)tetrahydrofuran-2-yl]methoxy-oxido-phosphoryl]oxy-oxido-phosphoryl] hydrogen phosphate
   44    46     1     0     0
SMALL
USER_CHARGES

@<TRIPOS>ATOM
      1 PG         -7.8693    3.4131    1.9943 P.3       1 ATP         1.5257
      2 O1G        -8.5951    2.0981    2.1715 O.co2     1 ATP        -0.8737
      3 O2G        -8.2471    4.3656    0.8817 O.co2     1 ATP        -0.8737
      4 O3G        -7.9147    4.2254    3.4099 O.3       1 ATP        -0.7971
      5 PB         -5.3881    2.3486    0.7885 P.3       1 ATP         1.6824
      6 O1B        -5.7700    0.8852    0.8020 O.co2     1 ATP        -0.8925
      7 O2B        -5.4239    3.1558   -0.4901 O.co2     1 ATP        -0.8925
      8 O3B        -6.2637    3.1285    1.9246 O.3       1 ATP        -0.8047
      9 PA         -3.0798    3.8627    1.8536 P.3       1 ATP         1.5908
     10 O1A        -3.8220    4.5968    2.9492 O.co2     1 ATP        -0.8932
     11 O2A        -2.6995    4.5681    0.5701 O.co2     1 ATP        -0.8932
     12 O3A        -3.9133    2.5109    1.4692 O.3       1 ATP        -0.8088
     13 O5'        -1.7336    3.1724    2.4750 O.3       1 ATP        -0.5646
     14 C5'        -0.8811    2.4285    1.6206 C.3       1 ATP         0.2204
     15 C4'        -0.1994    1.3333    2.4288 C.3       1 ATP         0.0965
     16 O4'        -1.1285    0.2356    2.5840 O.3       1 ATP        -0.3907
     17 C3'         1.0324    0.7610    1.7344 C.3       1 ATP         0.0763
     18 O3'         1.9175    0.2377    2.7247 O.3       1 ATP        -0.5884
     19 C2'         0.4468   -0.3802    0.9263 C.3       1 ATP         0.0784
     20 O2'         1.3993   -1.3703    0.5961 O.3       1 ATP        -0.6085
     21 C1'        -0.6159   -0.9100    1.8769 C.3       1 ATP         0.2186
     22 N9         -1.7127   -1.6108    1.2130 N.pl3     1 ATP        -0.1699
     23 C8         -3.0370   -1.2489    1.2455 C.ar      1 ATP         0.4438
     24 N7         -3.8008   -2.0709    0.5534 N.2       1 ATP        -0.6280
     25 C5         -2.9295   -2.9976    0.0567 C.ar      1 ATP         0.2109
     26 C6         -3.2152   -4.1411   -0.7786 C.ar      1 ATP         0.6180
     27 N6         -4.4238   -4.3865   -1.1456 N.2       1 ATP        -0.8319
     28 N1         -2.0349   -4.8186   -1.0521 N.pl3     1 ATP        -0.8664
     29 C2         -0.7728   -4.4501   -0.5916 C.ar      1 ATP         0.5952
     30 N3         -0.4885   -3.4234    0.1630 N.2       1 ATP        -0.5599
     31 C4         -1.6274   -2.7377    0.4492 C.ar      1 ATP         0.0076
     32 HOG3       -7.4830    5.1050    3.4575 H         1 ATP         0.4101
     33 H5'1       -1.4800    1.9927    0.8146 H         1 ATP         0.0364
     34 H5'2       -0.1367    3.1040    1.1872 H         1 ATP         0.0364
     35 H4'         0.0403    1.7078    3.4343 H         1 ATP         0.0945
     36 H3'         1.5907    1.4859    1.1353 H         1 ATP         0.0703
     37 HO3'        2.1521    0.9800    3.3017 H         1 ATP         0.4099
     38 H2'        -0.0017    0.0018    0.0005 H         1 ATP         0.0676
     39 HO2'        1.7495   -1.7243    1.4324 H         1 ATP         0.4291
     40 H1'        -0.1998   -1.6319    2.6178 H         1 ATP         0.0950
     41 H8         -3.3806   -0.3795    1.7893 H         1 ATP         0.1135
     42 HN62       -4.4384   -5.2300   -1.7295 H         1 ATP         0.3588
     43 H2          0.0180   -5.1355   -0.9348 H         1 ATP         0.0302
     44 H44        -2.0977   -5.6477   -1.6374 H         1 ATP         0.4215
@<TRIPOS>BOND
     1    1    2 2
     2    1    3 1
     3    1    4 1
     4    1    8 1
     5    4   32 1
     6    5    6 2
     7    5    7 1
     8    5    8 1
     9    5   12 1
    10    9   10 2
    11    9   11 1
    12    9   12 1
    13    9   13 1
    14   13   14 1
    15   14   15 1
    16   14   33 1
    17   14   34 1
    18   15   16 1
    19   15   17 1
    20   15   35 1
    21   16   21 1
    22   17   18 1
    23   17   19 1
    24   17   36 1
    25   18   37 1
    26   19   20 1
    27   19   21 1
    28   19   38 1
    29   20   39 1
    30   21   22 1
    31   21   40 1
    32   22   23 ar
    33   22   31 ar
    34   23   24 ar
    35   23   41 1
    36   24   25 ar
    37   25   26 ar
    38   25   31 ar
    39   26   27 2
    40   26   28 ar
    41   27   42 1
    42   28   29 ar
    43   28   44 1
    44   29   30 ar
    45   29   43 1
    46   30   31 ar
@<TRIPOS>SUBSTRUCTURE
     1 ATP         1 GROUP 0 A     ****
@<TRIPOS>MOLECULE
[[[3,4-dihydroxy-5-(6-imino-1~{H}-purin-9-yl)tetrahydrofuran-2-yl]methoxy-oxido-phosphoryl]oxy-oxido-phosphoryl] hydrogen phosphate
   44    46     1     0     0
SMALL
USER_CHARGES

@<TRIPOS>ATOM
      1 PG          8.9961    3.0762    3.5468 P.3       1 ATP         1.5257
      2 O1G         9.6759    4.4026    3.8036 O.co2     1 ATP        -0.8737
      3 O2G         9.3504    2.2429    2.3353 O.co2     1 ATP        -0.8737
      4 O3G         9.1533    2.1462    4.8796 O.3       1 ATP        -0.7971
      5 PB          6.4101    4.1270    2.5711 P.3       1 ATP         1.6824
      6 O1B         4.9698    3.8716    2.9557 O.co2     1 ATP        -0.8925
      7 O2B         6.9472    5.5345    2.4368 O.co2     1 ATP        -0.8925
      8 O3B         7.3788    3.2918    3.5859 O.3       1 ATP        -0.8047
      9 PA          6.1593    3.5241   -0.3148 P.3       1 ATP         1.5908
     10 O1A         6.6760    2.4087   -1.1975 O.co2     1 ATP        -0.8932
     11 O2A         6.3639    4.9731   -0.6998 O.co2     1 ATP        -0.8932
     12 O3A         6.7382    3.3079    1.1978 O.3       1 ATP        -0.8088
     13 O5'         4.5670    3.2937   -0.0211 O.3       1 ATP        -0.5646
     14 C5'         4.0922    1.9801    0.2227 C.3       1 ATP         0.2204
     15 C4'         2.5944    2.0310    0.4653 C.3       1 ATP         0.0965
     16 O4'         1.9327    2.5740   -0.6889 O.3       1 ATP        -0.3907
     17 C3'         1.9685    0.6634    0.6767 C.3       1 ATP         0.0763
     18 O3'         2.1425    0.1975    1.9977 O.3       1 ATP        -0.5884
     19 C2'         0.5176    0.9128    0.3099 C.3       1 ATP         0.0784
     20 O2'        -0.2103    1.4454    1.4152 O.3       1 ATP        -0.6085
     21 C1'         0.6219    1.9765   -0.7844 C.3       1 ATP         0.2186
     22 N9          0.4237    1.4496   -2.1357 N.pl3     1 ATP        -0.1699
     23 C8          1.4069    0.9710   -2.9662 C.ar      1 ATP         0.4438
     24 N7          0.9316    0.5623   -4.1260 N.2       1 ATP        -0.6280
     25 C5         -0.4120    0.7884   -4.0344 C.ar      1 ATP         0.2109
     26 C6         -1.4353    0.5283   -5.0204 C.ar      1 ATP         0.6180
     27 N6         -1.1199    0.0176   -6.1586 N.2       1 ATP        -0.8319
     28 N1         -2.6704    0.9095   -4.5147 N.pl3     1 ATP        -0.8664
     29 C2         -2.8863    1.4571   -3.2520 C.ar      1 ATP         0.5952
     30 N3         -1.9805    1.7017   -2.3442 N.2       1 ATP        -0.5599
     31 C4         -0.7561    1.3381   -2.8112 C.ar      1 ATP         0.0076
     32 HOG3        8.7614    1.2469    4.8703 H         1 ATP         0.4101
     33 H5'1        4.3179    1.3548   -0.6470 H         1 ATP         0.0364
     34 H5'2        4.6083    1.5737    1.0983 H         1 ATP         0.0364
     35 H4'         2.3752    2.7029    1.3156 H         1 ATP         0.0945
     36 H3'         2.4336   -0.1217   -0.0015 H         1 ATP         0.0703
     37 HO3'        1.7160   -0.6716    2.0397 H         1 ATP         0.4099
     38 H2'         0.0316    0.0155   -0.0339 H         1 ATP         0.0676
     39 HO2'       -0.1608    0.7921    2.1351 H         1 ATP         0.4291
     40 H1'        -0.1474    2.7798   -0.6651 H         1 ATP         0.0950
     41 H8          2.4466    0.9468   -2.6694 H         1 ATP         0.1135
     42 HN62       -1.9661   -0.0965   -6.7275 H         1 ATP         0.3588
     43 H2         -3.9481    1.6825   -3.0660 H         1 ATP         0.0302
     44 H44        -3.4814    0.7753   -5.1133 H         1 ATP         0.4215
@<TRIPOS>BOND
     1    1    2 2
     2    1    3 1
     3    1    4 1
     4    1    8 1
     5    4   32 1
     6    5    6 2
     7    5    7 1
     8    5    8 1
     9    5   12 1
    10    9   10 2
    11    9   11 1
    12    9   12 1
    13    9   13 1
    14   13   14 1
    15   14   15 1
    16   14   33 1
    17   14   34 1
    18   15   16 1
    19   15   17 1
    20   15   35 1
    21   16   21 1
    22   17   18 1
    23   17   19 1
    24   17   36 1
    25   18   37 1
    26   19   20 1
    27   19   21 1
    28   19   38 1
    29   20   39 1
    30   21   22 1
    31   21   40 1
    32   22   23 ar
    33   22   31 ar
    34   23   24 ar
    35   23   41 1
    36   24   25 ar
    37   25   26 ar
    38   25   31 ar
    39   26   27 2
    40   26   28 ar
    41   27   42 1
    42   28   29 ar
    43   28   44 1
    44   29   30 ar
    45   29   43 1
    46   30   31 ar
@<TRIPOS>SUBSTRUCTURE
     1 ATP         1 GROUP 0 A     ****
@<TRIPOS>MOLECULE
[[[3,4-dihydroxy-5-(6-imino-1~{H}-purin-9-yl)tetrahydrofuran-2-yl]methoxy-oxido-phosphoryl]oxy-oxido-phosphoryl] hydrogen phosphate
   44    46     1     0     0
SMALL
USER_CHARGES

@<TRIPOS>ATOM
      1 PG          7.0554    3.8598    4.4016 P.3       1 ATP         1.5257
      2 O1G         5.6048    3.7570    3.9861 O.co2     1 ATP        -0.8737
      3 O2G         7.6914    5.2039    4.6779 O.co2     1 ATP        -0.8737
      4 O3G         7.2927    2.8974    5.6991 O.3       1 ATP        -0.7971
      5 PB          8.2727    3.3750    1.7508 P.3       1 ATP         1.6824
      6 O1B         8.7680    4.7993    1.6346 O.co2     1 ATP        -0.8925
      7 O2B         9.0531    2.2233    1.1575 O.co2     1 ATP        -0.8925
      8 O3B         7.9754    3.0509    3.3231 O.3       1 ATP        -0.8047
      9 PA          6.1593    3.5241   -0.3148 P.3       1 ATP         1.5908
     10 O1A         6.6760    2.4087   -1.1975 O.co2     1 ATP        -0.8932
     11 O2A         6.3639    4.9731   -0.6998 O.co2     1 ATP        -0.8932
     12 O3A         6.7382    3.3079    1.1978 O.3       1 ATP        -0.8088
     13 O5'         4.5670    3.2937   -0.0211 O.3       1 ATP        -0.5646
     14 C5'         4.0922    1.9801    0.2227 C.3       1 ATP         0.2204
     15 C4'         2.5944    2.0310    0.4653 C.3       1 ATP         0.0965
     16 O4'         1.9327    2.5740   -0.6889 O.3       1 ATP        -0.3907
     17 C3'         1.9685    0.6634    0.6767 C.3       1 ATP         0.0763
     18 O3'         2.1425    0.1975    1.9977 O.3       1 ATP        -0.5884
     19 C2'         0.5176    0.9128    0.3099 C.3       1 ATP         0.0784
     20 O2'        -0.2103    1.4454    1.4152 O.3       1 ATP        -0.6085
     21 C1'         0.6219    1.9765   -0.7844 C.3       1 ATP         0.2186
     22 N9          0.4237    1.4496   -2.1357 N.pl3     1 ATP        -0.1699
     23 C8          1.4069    0.9710   -2.9662 C.ar      1 ATP         0.4438
     24 N7          0.9316    0.5623   -4.1260 N.2       1 ATP        -0.6280
     25 C5         -0.4120    0.7884   -4.0344 C.ar      1 ATP         0.2109
     26 C6         -1.4353    0.5283   -5.0204 C.ar      1 ATP         0.6180
     27 N6         -1.1199    0.0176   -6.1586 N.2       1 ATP        -0.8319
     28 N1         -2.6704    0.9095   -4.5147 N.pl3     1 ATP        -0.8664
     29 C2         -2.8863    1.4571   -3.2520 C.ar      1 ATP         0.5952
     30 N3         -1.9805    1.7017   -2.3442 N.2       1 ATP        -0.5599
     31 C4         -0.7561    1.3381   -2.8112 C.ar      1 ATP         0.0076
     32 HOG3        8.1912    2.8544    6.0904 H         1 ATP         0.4101
     33 H5'1        4.3179    1.3548   -0.6470 H         1 ATP         0.0364
     34 H5'2        4.6083    1.5737    1.0983 H         1 ATP         0.0364
     35 H4'         2.3752    2.7029    1.3156 H         1 ATP         0.0945
     36 H3'         2.4336   -0.1217   -0.0015 H         1 ATP         0.0703
     37 HO3'        3.0987    0.1465    2.1461 H         1 ATP         0.4099
     38 H2'         0.0316    0.0155   -0.0339 H         1 ATP         0.0676
     39 HO2'       -0.1608    0.7921    2.1351 H         1 ATP         0.4291
     40 H1'        -0.1474    2.7798   -0.6651 H         1 ATP         0.0950
     41 H8          2.4466    0.9468   -2.6694 H         1 ATP         0.1135
     42 HN62       -1.9661   -0.0965   -6.7275 H         1 ATP         0.3588
     43 H2         -3.9481    1.6825   -3.0660 H         1 ATP         0.0302
     44 H44        -3.4814    0.7753   -5.1133 H         1 ATP         0.4215
@<TRIPOS>BOND
     1    1    2 2
     2    1    3 1
     3    1    4 1
     4    1    8 1
     5    4   32 1
     6    5    6 2
     7    5    7 1
     8    5    8 1
     9    5   12 1
    10    9   10 2
    11    9   11 1
    12    9   12 1
    13    9   13 1
    14   13   14 1
    15   14   15 1
    16   14   33 1
    17   14   34 1
    18   15   16 1
    19   15   17 1
    20   15   35 1
    21   16   21 1
    22   17   18 1
    23   17   19 1
    24   17   36 1
    25   18   37 1
    26   19   20 1
    27   19   21 1
    28   19   38 1
    29   20   39 1
    30   21   22 1
    31   21   40 1
    32   22   23 ar
    33   22   31 ar
    34   23   24 ar
    35   23   41 1
    36   24   25 ar
    37   25   26 ar
    38   25   31 ar
    39   26   27 2
    40   26   28 ar
    41   27   42 1
    42   28   29 ar
    43   28   44 1
    44   29   30 ar
    45   29   43 1
    46   30   31 ar
@<TRIPOS>SUBSTRUCTURE
     1 ATP         1 GROUP 0 A     ****
@<TRIPOS>MOLECULE
[[[3,4-dihydroxy-5-(6-imino-1~{H}-purin-9-yl)tetrahydrofuran-2-yl]methoxy-oxido-phosphoryl]oxy-oxido-phosphoryl] hydrogen phosphate
   44    46     1     0     0
SMALL
USER_CHARGES

@<TRIPOS>ATOM
      1 PG         -1.1115    3.6984   -4.5925 P.3       1 ATP         1.5257
      2 O1G        -0.1350    4.6429   -5.2572 O.co2     1 ATP        -0.8737
      3 O2G        -2.5714    3.6849   -4.9878 O.co2     1 ATP        -0.8737
      4 O3G        -0.5275    2.1785   -4.7138 O.3       1 ATP        -0.7971
      5 PB         -1.4007    5.1489   -2.0320 P.3       1 ATP         1.6824
      6 O1B        -0.4610    6.2928   -2.3419 O.co2     1 ATP        -0.8925
      7 O2B        -2.9011    5.3341   -2.0745 O.co2     1 ATP        -0.8925
      8 O3B        -1.0035    3.8756   -2.9736 O.3       1 ATP        -0.8047
      9 PA          0.4528    3.9705   -0.0493 P.3       1 ATP         1.5908
     10 O1A         1.4111    5.1388    0.0343 O.co2     1 ATP        -0.8932
     11 O2A         0.8144    2.7281   -0.8338 O.co2     1 ATP        -0.8932
     12 O3A        -0.9922    4.5136   -0.5848 O.3       1 ATP        -0.8088
     13 O5'         0.0178    3.5131    1.4595 O.3       1 ATP        -0.5646
     14 C5'        -0.8811    2.4285    1.6206 C.3       1 ATP         0.2204
     15 C4'        -0.1994    1.3333    2.4288 C.3       1 ATP         0.0965
     16 O4'        -1.1285    0.2356    2.5840 O.3       1 ATP        -0.3907
     17 C3'         1.0324    0.7610    1.7344 C.3       1 ATP         0.0763
     18 O3'         1.9175    0.2377    2.7247 O.3       1 ATP        -0.5884
     19 C2'         0.4468   -0.3802    0.9263 C.3       1 ATP         0.0784
     20 O2'         1.3993   -1.3703    0.5961 O.3       1 ATP        -0.6085
     21 C1'        -0.6159   -0.9100    1.8769 C.3       1 ATP         0.2186
     22 N9         -1.7127   -1.6108    1.2130 N.pl3     1 ATP        -0.1699
     23 C8         -2.8662   -1.0361    0.7388 C.ar      1 ATP         0.4438
     24 N7         -3.6774   -1.9166    0.1867 N.2       1 ATP        -0.6280
     25 C5         -3.0159   -3.1045    0.3122 C.ar      1 ATP         0.2109
     26 C6         -3.4377   -4.4169   -0.1199 C.ar      1 ATP         0.6180
     27 N6         -4.5720   -4.5691   -0.7080 N.2       1 ATP        -0.8319
     28 N1         -2.4600   -5.3463    0.2071 N.pl3     1 ATP        -0.8664
     29 C2         -1.2595   -5.0554    0.8515 C.ar      1 ATP         0.5952
     30 N3         -0.8555   -3.8803    1.2516 N.2       1 ATP        -0.5599
     31 C4         -1.7946   -2.9457    0.9448 C.ar      1 ATP         0.0076
     32 HOG3       -1.0513    1.4448   -4.3271 H         1 ATP         0.4101
     33 H5'1       -1.7771    2.7849    2.1387 H         1 ATP         0.0364
     34 H5'2       -1.1654    2.0541    0.6320 H         1 ATP         0.0364
     35 H4'         0.0403    1.7078    3.4343 H         1 ATP         0.0945
     36 H3'         1.5907    1.4859    1.1353 H         1 ATP         0.0703
     37 HO3'        2.6839   -0.1150    2.2479 H         1 ATP         0.4099
     38 H2'        -0.0017    0.0018    0.0005 H         1 ATP         0.0676
     39 HO2'        2.0953   -0.9375    0.0709 H         1 ATP         0.4291
     40 H1'        -0.1998   -1.6319    2.6178 H         1 ATP         0.0950
     41 H8         -3.0558    0.0252    0.8256 H         1 ATP         0.1135
     42 HN62       -4.7047   -5.5592   -0.9421 H         1 ATP         0.3588
     43 H2         -0.6372   -5.9505    1.0077 H         1 ATP         0.0302
     44 H44        -2.6338   -6.3155   -0.0469 H         1 ATP         0.4215
@<TRIPOS>BOND
     1    1    2 2
     2    1    3 1
     3    1    4 1
     4    1    8 1
     5    4   32 1
     6    5    6 2
     7    5    7 1
     8    5    8 1
     9    5   12 1
    10    9   10 2
    11    9   11 1
    12    9   12 1
    13    9   13 1
    14   13   14 1
    15   14   15 1
    16   14   33 1
    17   14   34 1
    18   15   16 1
    19   15   17 1
    20   15   35 1
    21   16   21 1
    22   17   18 1
    23   17   19 1
    24   17   36 1
    25   18   37 1
    26   19   20 1
    27   19   21 1
    28   19   38 1
    29   20   39 1
    30   21   22 1
    31   21   40 1
    32   22   23 ar
    33   22   31 ar
    34   23   24 ar
    35   23   41 1
    36   24   25 ar
    37   25   26 ar
    38   25   31 ar
    39   26   27 2
    40   26   28 ar
    41   27   42 1
    42   28   29 ar
    43   28   44 1
    44   29   30 ar
    45   29   43 1
    46   30   31 ar
@<TRIPOS>SUBSTRUCTURE
     1 ATP         1 GROUP 0 A     ****
@<TRIPOS>MOLECULE
[[[3,4-dihydroxy-5-(6-imino-1~{H}-purin-9-yl)tetrahydrofuran-2-yl]methoxy-oxido-phosphoryl]oxy-oxido-phosphoryl] hydrogen phosphate
   44    46     1     0     0
SMALL
USER_CHARGES

@<TRIPOS>ATOM
      1 PG         -4.1440    4.3407   -1.4248 P.3       1 ATP         1.5257
      2 O1G        -5.0296    4.0771   -0.2274 O.co2     1 ATP        -0.8737
      3 O2G        -3.3290    3.2295   -2.0483 O.co2     1 ATP        -0.8737
      4 O3G        -5.0455    5.0405   -2.5925 O.3       1 ATP        -0.7971
      5 PB         -1.9402    5.7103   -0.0068 P.3       1 ATP         1.6824
      6 O1B        -1.2320    7.0311   -0.2105 O.co2     1 ATP        -0.8925
      7 O2B        -2.4614    5.3025    1.3532 O.co2     1 ATP        -0.8925
      8 O3B        -3.1570    5.5965   -1.0894 O.3       1 ATP        -0.8047
      9 PA          0.4528    3.9705   -0.0493 P.3       1 ATP         1.5908
     10 O1A         1.4111    5.1388    0.0343 O.co2     1 ATP        -0.8932
     11 O2A         0.8144    2.7281   -0.8338 O.co2     1 ATP        -0.8932
     12 O3A        -0.9922    4.5136   -0.5848 O.3       1 ATP        -0.8088
     13 O5'         0.0178    3.5131    1.4595 O.3       1 ATP        -0.5646
     14 C5'        -0.8811    2.4285    1.6206 C.3       1 ATP         0.2204
     15 C4'        -0.1994    1.3333    2.4288 C.3       1 ATP         0.0965
     16 O4'        -1.1285    0.2356    2.5840 O.3       1 ATP        -0.3907
     17 C3'         1.0324    0.7610    1.7344 C.3       1 ATP         0.0763
     18 O3'         1.9175    0.2377    2.7247 O.3       1 ATP        -0.5884
     19 C2'         0.4468   -0.3802    0.9263 C.3       1 ATP         0.0784
     20 O2'         1.3993   -1.3703    0.5961 O.3       1 ATP        -0.6085
     21 C1'        -0.6159   -0.9100    1.8769 C.3       1 ATP         0.2186
     22 N9         -1.7127   -1.6108    1.2130 N.pl3     1 ATP        -0.1699
     23 C8         -1.7690   -2.9583    0.9549 C.ar      1 ATP         0.4438
     24 N7         -2.8827   -3.3076    0.3418 N.2       1 ATP        -0.6280
     25 C5         -3.5683   -2.1351    0.2017 C.ar      1 ATP         0.2109
     26 C6         -4.8617   -1.9185   -0.4044 C.ar      1 ATP         0.6180
     27 N6         -5.5166   -2.9094   -0.8993 N.2       1 ATP        -0.8319
     28 N1         -5.1837   -0.5701   -0.3344 N.pl3     1 ATP        -0.8664
     29 C2         -4.3821    0.4180    0.2330 C.ar      1 ATP         0.5952
     30 N3         -3.2117    0.2488    0.7860 N.2       1 ATP        -0.5599
     31 C4         -2.8672   -1.0657    0.7327 C.ar      1 ATP         0.0076
     32 HOG3       -4.6110    5.2752   -3.4401 H         1 ATP         0.4101
     33 H5'1       -1.7771    2.7849    2.1387 H         1 ATP         0.0364
     34 H5'2       -1.1654    2.0541    0.6320 H         1 ATP         0.0364
     35 H4'         0.0403    1.7078    3.4343 H         1 ATP         0.0945
     36 H3'         1.5907    1.4859    1.1353 H         1 ATP         0.0703
     37 HO3'        2.6839   -0.1150    2.2479 H         1 ATP         0.4099
     38 H2'        -0.0017    0.0018    0.0005 H         1 ATP         0.0676
     39 HO2'        2.0953   -0.9375    0.0709 H         1 ATP         0.4291
     40 H1'        -0.1998   -1.6319    2.6178 H         1 ATP         0.0950
     41 H8         -0.9697   -3.6300    1.2371 H         1 ATP         0.1135
     42 HN62       -6.4060   -2.5723   -1.2840 H         1 ATP         0.3588
     43 H2         -4.8409    1.4176    0.1757 H         1 ATP         0.0302
     44 H44        -6.0768   -0.2826   -0.7263 H         1 ATP         0.4215
@<TRIPOS>BOND
     1    1    2 2
     2    1    3 1
     3    1    4 1
     4    1    8 1
     5    4   32 1
     6    5    6 2
     7    5    7 1
     8    5    8 1
     9    5   12 1
    10    9   10 2
    11    9   11 1
    12    9   12 1
    13    9   13 1
    14   13   14 1
    15   14   15 1
    16   14   33 1
    17   14   34 1
    18   15   16 1
    19   15   17 1
    20   15   35 1
    21   16   21 1
    22   17   18 1
    23   17   19 1
    24   17   36 1
    25   18   37 1
    26   19   20 1
    27   19   21 1
    28   19   38 1
    29   20   39 1
    30   21   22 1
    31   21   40 1
    32   22   23 ar
    33   22   31 ar
    34   23   24 ar
    35   23   41 1
    36   24   25 ar
    37   25   26 ar
    38   25   31 ar
    39   26   27 2
    40   26   28 ar
    41   27   42 1
    42   28   29 ar
    43   28   44 1
    44   29   30 ar
    45   29   43 1
    46   30   31 ar
@<TRIPOS>SUBSTRUCTURE
     1 ATP         1 GROUP 0 A     ****
@<TRIPOS>MOLECULE
[[[3,4-dihydroxy-5-(6-imino-1~{H}-purin-9-yl)tetrahydrofuran-2-yl]methoxy-oxido-phosphoryl]oxy-oxido-phosphoryl] hydrogen phosphate
   44    46     1     0     0
SMALL
USER_CHARGES

@<TRIPOS>ATOM
      1 PG          6.5823   -2.3246    2.0928 P.3       1 ATP         1.5257
      2 O1G         6.9924   -3.6335    1.4556 O.co2     1 ATP        -0.8737
      3 O2G         5.1795   -1.7845    1.9255 O.co2     1 ATP        -0.8737
      4 O3G         6.9241   -2.3947    3.6878 O.3       1 ATP        -0.7971
      5 PB          7.9428   -0.5068    0.1984 P.3       1 ATP         1.6824
      6 O1B         8.9093    0.6437    0.3703 O.co2     1 ATP        -0.8925
      7 O2B         8.2166   -1.6191   -0.7891 O.co2     1 ATP        -0.8925
      8 O3B         7.6496   -1.1671    1.6626 O.3       1 ATP        -0.8047
      9 PA          5.8979    0.9309   -1.3848 P.3       1 ATP         1.5908
     10 O1A         5.9209    0.0232   -2.5956 O.co2     1 ATP        -0.8932
     11 O2A         6.5856    2.2784   -1.4151 O.co2     1 ATP        -0.8932
     12 O3A         6.4552    0.0987   -0.0938 O.3       1 ATP        -0.8088
     13 O5'         4.3516    1.1575   -0.9026 O.3       1 ATP        -0.5646
     14 C5'         4.0922    1.9801    0.2227 C.3       1 ATP         0.2204
     15 C4'         2.5944    2.0310    0.4653 C.3       1 ATP         0.0965
     16 O4'         1.9327    2.5740   -0.6889 O.3       1 ATP        -0.3907
     17 C3'         1.9685    0.6634    0.6767 C.3       1 ATP         0.0763
     18 O3'         2.1425    0.1975    1.9977 O.3       1 ATP        -0.5884
     19 C2'         0.5176    0.9128    0.3099 C.3       1 ATP         0.0784
     20 O2'        -0.2103    1.4454    1.4152 O.3       1 ATP        -0.6085
     21 C1'         0.6219    1.9765   -0.7844 C.3       1 ATP         0.2186
     22 N9          0.4237    1.4496   -2.1357 N.pl3     1 ATP        -0.1699
     23 C8          1.4069    0.9710   -2.9662 C.ar      1 ATP         0.4438
     24 N7          0.9316    0.5623   -4.1260 N.2       1 ATP        -0.6280
     25 C5         -0.4120    0.7884   -4.0344 C.ar      1 ATP         0.2109
     26 C6         -1.4353    0.5283   -5.0204 C.ar      1 ATP         0.6180
     27 N6         -1.1199    0.0176   -6.1586 N.2       1 ATP        -0.8319
     28 N1         -2.6704    0.9095   -4.5147 N.pl3     1 ATP        -0.8664
     29 C2         -2.8863    1.4571   -3.2520 C.ar      1 ATP         0.5952
     30 N3         -1.9805    1.7017   -2.3442 N.2       1 ATP        -0.5599
     31 C4         -0.7561    1.3381   -2.8112 C.ar      1 ATP         0.0076
     32 HOG3        6.7147   -1.6149    4.2449 H         1 ATP         0.4101
     33 H5'1        4.6069    1.5618    1.0936 H         1 ATP         0.0364
     34 H5'2        4.4824    2.9837    0.0254 H         1 ATP         0.0364
     35 H4'         2.3752    2.7029    1.3156 H         1 ATP         0.0945
     36 H3'         2.4336   -0.1217   -0.0015 H         1 ATP         0.0703
     37 HO3'        1.7160   -0.6716    2.0397 H         1 ATP         0.4099
     38 H2'         0.0316    0.0155   -0.0339 H         1 ATP         0.0676
     39 HO2'       -1.1270    1.5823    1.1180 H         1 ATP         0.4291
     40 H1'        -0.1474    2.7798   -0.6651 H         1 ATP         0.0950
     41 H8          2.4466    0.9468   -2.6694 H         1 ATP         0.1135
     42 HN62       -1.9661   -0.0965   -6.7275 H         1 ATP         0.3588
     43 H2         -3.9481    1.6825   -3.0660 H         1 ATP         0.0302
     44 H44        -3.4814    0.7753   -5.1133 H         1 ATP         0.4215
@<TRIPOS>BOND
     1    1    2 2
     2    1    3 1
     3    1    4 1
     4    1    8 1
     5    4   32 1
     6    5    6 2
     7    5    7 1
     8    5    8 1
     9    5   12 1
    10    9   10 2
    11    9   11 1
    12    9   12 1
    13    9   13 1
    14   13   14 1
    15   14   15 1
    16   14   33 1
    17   14   34 1
    18   15   16 1
    19   15   17 1
    20   15   35 1
    21   16   21 1
    22   17   18 1
    23   17   19 1
    24   17   36 1
    25   18   37 1
    26   19   20 1
    27   19   21 1
    28   19   38 1
    29   20   39 1
    30   21   22 1
    31   21   40 1
    32   22   23 ar
    33   22   31 ar
    34   23   24 ar
    35   23   41 1
    36   24   25 ar
    37   25   26 ar
    38   25   31 ar
    39   26   27 2
    40   26   28 ar
    41   27   42 1
    42   28   29 ar
    43   28   44 1
    44   29   30 ar
    45   29   43 1
    46   30   31 ar
@<TRIPOS>SUBSTRUCTURE
     1 ATP         1 GROUP 0 A     ****
@<TRIPOS>MOLECULE
[[[3,4-dihydroxy-5-(6-imino-1~{H}-purin-9-yl)tetrahydrofuran-2-yl]methoxy-oxido-phosphoryl]oxy-oxido-phosphoryl] hydrogen phosphate
   44    46     1     0     0
SMALL
USER_CHARGES

@<TRIPOS>ATOM
      1 PG         -0.8006    9.1491    3.8051 P.3       1 ATP         1.5257
      2 O1G         0.4717    9.7950    3.3035 O.co2     1 ATP        -0.8737
      3 O2G        -1.2004    9.2467    5.2605 O.co2     1 ATP        -0.8737
      4 O3G        -2.0455    9.6755    2.8890 O.3       1 ATP        -0.7971
      5 PB         -1.9924    6.4606    3.4965 P.3       1 ATP         1.6824
      6 O1B        -2.2145    6.1697    4.9640 O.co2     1 ATP        -0.8925
      7 O2B        -3.1404    6.8524    2.5931 O.co2     1 ATP        -0.8925
      8 O3B        -0.8116    7.5796    3.3576 O.3       1 ATP        -0.8047
      9 PA         -0.5790    5.0299    1.3261 P.3       1 ATP         1.5908
     10 O1A         0.5634    6.0092    1.1642 O.co2     1 ATP        -0.8932
     11 O2A        -1.7210    5.0027    0.3337 O.co2     1 ATP        -0.8932
     12 O3A        -1.2057    5.1972    2.8258 O.3       1 ATP        -0.8088
     13 O5'         0.0178    3.5131    1.4595 O.3       1 ATP        -0.5646
     14 C5'        -0.8811    2.4285    1.6206 C.3       1 ATP         0.2204
     15 C4'        -0.1994    1.3333    2.4288 C.3       1 ATP         0.0965
     16 O4'        -1.1285    0.2356    2.5840 O.3       1 ATP        -0.3907
     17 C3'         1.0324    0.7610    1.7344 C.3       1 ATP         0.0763
     18 O3'         1.9175    0.2377    2.7247 O.3       1 ATP        -0.5884
     19 C2'         0.4468   -0.3802    0.9263 C.3       1 ATP         0.0784
     20 O2'         1.3993   -1.3703    0.5961 O.3       1 ATP        -0.6085
     21 C1'        -0.6159   -0.9100    1.8769 C.3       1 ATP         0.2186
     22 N9         -1.7127   -1.6108    1.2130 N.pl3     1 ATP        -0.1699
     23 C8         -1.7690   -2.9583    0.9549 C.ar      1 ATP         0.4438
     24 N7         -2.8827   -3.3076    0.3418 N.2       1 ATP        -0.6280
     25 C5         -3.5683   -2.1351    0.2017 C.ar      1 ATP         0.2109
     26 C6         -4.8617   -1.9185   -0.4044 C.ar      1 ATP         0.6180
     27 N6         -5.5166   -2.9094   -0.8993 N.2       1 ATP        -0.8319
     28 N1         -5.1837   -0.5701   -0.3344 N.pl3     1 ATP        -0.8664
     29 C2         -4.3821    0.4180    0.2330 C.ar      1 ATP         0.5952
     30 N3         -3.2117    0.2488    0.7860 N.2       1 ATP        -0.5599
     31 C4         -2.8672   -1.0657    0.7327 C.ar      1 ATP         0.0076
     32 HOG3       -2.9465    9.3442    3.0909 H         1 ATP         0.4101
     33 H5'1       -1.7771    2.7849    2.1387 H         1 ATP         0.0364
     34 H5'2       -1.1654    2.0541    0.6320 H         1 ATP         0.0364
     35 H4'         0.0403    1.7078    3.4343 H         1 ATP         0.0945
     36 H3'         1.5907    1.4859    1.1353 H         1 ATP         0.0703
     37 HO3'        2.6839   -0.1150    2.2479 H         1 ATP         0.4099
     38 H2'        -0.0017    0.0018    0.0005 H         1 ATP         0.0676
     39 HO2'        0.9369   -2.0558    0.0825 H         1 ATP         0.4291
     40 H1'        -0.1998   -1.6319    2.6178 H         1 ATP         0.0950
     41 H8         -0.9697   -3.6300    1.2371 H         1 ATP         0.1135
     42 HN62       -6.4060   -2.5723   -1.2840 H         1 ATP         0.3588
     43 H2         -4.8409    1.4176    0.1757 H         1 ATP         0.0302
     44 H44        -6.0768   -0.2826   -0.7263 H         1 ATP         0.4215
@<TRIPOS>BOND
     1    1    2 2
     2    1    3 1
     3    1    4 1
     4    1    8 1
     5    4   32 1
     6    5    6 2
     7    5    7 1
     8    5    8 1
     9    5   12 1
    10    9   10 2
    11    9   11 1
    12    9   12 1
    13    9   13 1
    14   13   14 1
    15   14   15 1
    16   14   33 1
    17   14   34 1
    18   15   16 1
    19   15   17 1
    20   15   35 1
    21   16   21 1
    22   17   18 1
    23   17   19 1
    24   17   36 1
    25   18   37 1
    26   19   20 1
    27   19   21 1
    28   19   38 1
    29   20   39 1
    30   21   22 1
    31   21   40 1
    32   22   23 ar
    33   22   31 ar
    34   23   24 ar
    35   23   41 1
    36   24   25 ar
    37   25   26 ar
    38   25   31 ar
    39   26   27 2
    40   26   28 ar
    41   27   42 1
    42   28   29 ar
    43   28   44 1
    44   29   30 ar
    45   29   43 1
    46   30   31 ar
@<TRIPOS>SUBSTRUCTURE
     1 ATP         1 GROUP 0 A     ****
@<TRIPOS>MOLECULE
[[[3,4-dihydroxy-5-(6-imino-1~{H}-purin-9-yl)tetrahydrofuran-2-yl]methoxy-oxido-phosphoryl]oxy-oxido-phosphoryl] hydrogen phosphate
   44    46     1     0     0
SMALL
USER_CHARGES

@<TRIPOS>ATOM
      1 PG          4.5788    4.1155   -5.9120 P.3       1 ATP         1.5257
      2 O1G         3.1227    3.9756   -6.2960 O.co2     1 ATP        -0.8737
      3 O2G         5.6457    3.2892   -6.5953 O.co2     1 ATP        -0.8737
      4 O3G         4.9947    5.6907   -6.0201 O.3       1 ATP        -0.7971
      5 PB          6.0246    4.1336   -3.3327 P.3       1 ATP         1.6824
      6 O1B         7.0435    3.0666   -3.6660 O.co2     1 ATP        -0.8925
      7 O2B         6.3994    5.5988   -3.3229 O.co2     1 ATP        -0.8925
      8 O3B         4.7222    3.9328   -4.2965 O.3       1 ATP        -0.8047
      9 PA          5.9684    3.7219   -0.4031 P.3       1 ATP         1.5908
     10 O1A         6.3633    5.1276   -0.0051 O.co2     1 ATP        -0.8932
     11 O2A         6.9719    2.5908   -0.3452 O.co2     1 ATP        -0.8932
     12 O3A         5.3259    3.7621   -1.9049 O.3       1 ATP        -0.8088
     13 O5'         4.6405    3.2699    0.4378 O.3       1 ATP        -0.5646
     14 C5'         4.0922    1.9801    0.2227 C.3       1 ATP         0.2204
     15 C4'         2.5944    2.0310    0.4653 C.3       1 ATP         0.0965
     16 O4'         1.9327    2.5740   -0.6889 O.3       1 ATP        -0.3907
     17 C3'         1.9685    0.6634    0.6767 C.3       1 ATP         0.0763
     18 O3'         2.1425    0.1975    1.9977 O.3       1 ATP        -0.5884
     19 C2'         0.5176    0.9128    0.3099 C.3       1 ATP         0.0784
     20 O2'        -0.2103    1.4454    1.4152 O.3       1 ATP        -0.6085
     21 C1'         0.6219    1.9765   -0.7844 C.3       1 ATP         0.2186
     22 N9          0.4237    1.4496   -2.1357 N.pl3     1 ATP        -0.1699
     23 C8          1.4069    0.9710   -2.9662 C.ar      1 ATP         0.4438
     24 N7          0.9316    0.5623   -4.1260 N.2       1 ATP        -0.6280
     25 C5         -0.4120    0.7884   -4.0344 C.ar      1 ATP         0.2109
     26 C6         -1.4353    0.5283   -5.0204 C.ar      1 ATP         0.6180
     27 N6         -1.1199    0.0176   -6.1586 N.2       1 ATP        -0.8319
     28 N1         -2.6704    0.9095   -4.5147 N.pl3     1 ATP        -0.8664
     29 C2         -2.8863    1.4571   -3.2520 C.ar      1 ATP         0.5952
     30 N3         -1.9805    1.7017   -2.3442 N.2       1 ATP        -0.5599
     31 C4         -0.7561    1.3381   -2.8112 C.ar      1 ATP         0.0076
     32 HOG3        5.9160    5.9465   -5.8009 H         1 ATP         0.4101
     33 H5'1        4.3028    1.6728   -0.8066 H         1 ATP         0.0364
     34 H5'2        4.5677    1.2738    0.9106 H         1 ATP         0.0364
     35 H4'         2.3752    2.7029    1.3156 H         1 ATP         0.0945
     36 H3'         2.4336   -0.1217   -0.0015 H         1 ATP         0.0703
     37 HO3'        1.7160   -0.6716    2.0397 H         1 ATP         0.4099
     38 H2'         0.0316    0.0155   -0.0339 H         1 ATP         0.0676
     39 HO2'       -0.1608    0.7921    2.1351 H         1 ATP         0.4291
     40 H1'        -0.1474    2.7798   -0.6651 H         1 ATP         0.0950
     41 H8          2.4466    0.9468   -2.6694 H         1 ATP         0.1135
     42 HN62       -1.9661   -0.0965   -6.7275 H         1 ATP         0.3588
     43 H2         -3.9481    1.6825   -3.0660 H         1 ATP         0.0302
     44 H44        -3.4814    0.7753   -5.1133 H         1 ATP         0.4215
@<TRIPOS>BOND
     1    1    2 2
     2    1    3 1
     3    1    4 1
     4    1    8 1
     5    4   32 1
     6    5    6 2
     7    5    7 1
     8    5    8 1
     9    5   12 1
    10    9   10 2
    11    9   11 1
    12    9   12 1
    13    9   13 1
    14   13   14 1
    15   14   15 1
    16   14   33 1
    17   14   34 1
    18   15   16 1
    19   15   17 1
    20   15   35 1
    21   16   21 1
    22   17   18 1
    23   17   19 1
    24   17   36 1
    25   18   37 1
    26   19   20 1
    27   19   21 1
    28   19   38 1
    29   20   39 1
    30   21   22 1
    31   21   40 1
    32   22   23 ar
    33   22   31 ar
    34   23   24 ar
    35   23   41 1
    36   24   25 ar
    37   25   26 ar
    38   25   31 ar
    39   26   27 2
    40   26   28 ar
    41   27   42 1
    42   28   29 ar
    43   28   44 1
    44   29   30 ar
    45   29   43 1
    46   30   31 ar
@<TRIPOS>SUBSTRUCTURE
     1 ATP         1 GROUP 0 A     ****
@<TRIPOS>MOLECULE
[[[3,4-dihydroxy-5-(6-imino-1~{H}-purin-9-yl)tetrahydrofuran-2-yl]methoxy-oxido-phosphoryl]oxy-oxido-phosphoryl] hydrogen phosphate
   44    46     1     0     0
SMALL
USER_CHARGES

@<TRIPOS>ATOM
      1 PG          0.6154    2.5429   -4.4785 P.3       1 ATP         1.5257
      2 O1G         1.0198    1.1141   -4.1916 O.co2     1 ATP        -0.8737
      3 O2G         1.5755    3.5037   -5.1439 O.co2     1 ATP        -0.8737
      4 O3G        -0.7765    2.5267   -5.3318 O.3       1 ATP        -0.7971
      5 PB          0.8421    3.5905   -1.7226 P.3       1 ATP         1.6824
      6 O1B         1.2750    2.3049   -1.0539 O.co2     1 ATP        -0.8925
      7 O2B         1.8330    4.6966   -2.0092 O.co2     1 ATP        -0.8925
      8 O3B         0.0545    3.2223   -3.1046 O.3       1 ATP        -0.8047
      9 PA         -0.4665    4.8322    0.6228 P.3       1 ATP         1.5908
     10 O1A        -1.9050    5.1497    0.9698 O.co2     1 ATP        -0.8932
     11 O2A         0.6096    5.8892    0.7429 O.co2     1 ATP        -0.8932
     12 O3A        -0.4148    4.2162   -0.8897 O.3       1 ATP        -0.8088
     13 O5'         0.0178    3.5131    1.4595 O.3       1 ATP        -0.5646
     14 C5'        -0.8811    2.4285    1.6206 C.3       1 ATP         0.2204
     15 C4'        -0.1994    1.3333    2.4288 C.3       1 ATP         0.0965
     16 O4'        -1.1285    0.2356    2.5840 O.3       1 ATP        -0.3907
     17 C3'         1.0324    0.7610    1.7344 C.3       1 ATP         0.0763
     18 O3'         1.9175    0.2377    2.7247 O.3       1 ATP        -0.5884
     19 C2'         0.4468   -0.3802    0.9263 C.3       1 ATP         0.0784
     20 O2'         1.3993   -1.3703    0.5961 O.3       1 ATP        -0.6085
     21 C1'        -0.6159   -0.9100    1.8769 C.3       1 ATP         0.2186
     22 N9         -1.7127   -1.6108    1.2130 N.pl3     1 ATP        -0.1699
     23 C8         -1.7690   -2.9583    0.9549 C.ar      1 ATP         0.4438
     24 N7         -2.8827   -3.3076    0.3418 N.2       1 ATP        -0.6280
     25 C5         -3.5683   -2.1351    0.2017 C.ar      1 ATP         0.2109
     26 C6         -4.8617   -1.9185   -0.4044 C.ar      1 ATP         0.6180
     27 N6         -5.5166   -2.9094   -0.8993 N.2       1 ATP        -0.8319
     28 N1         -5.1837   -0.5701   -0.3344 N.pl3     1 ATP        -0.8664
     29 C2         -4.3821    0.4180    0.2330 C.ar      1 ATP         0.5952
     30 N3         -3.2117    0.2488    0.7860 N.2       1 ATP        -0.5599
     31 C4         -2.8672   -1.0657    0.7327 C.ar      1 ATP         0.0076
     32 HOG3       -1.1714    3.3845   -5.5973 H         1 ATP         0.4101
     33 H5'1       -1.7771    2.7849    2.1387 H         1 ATP         0.0364
     34 H5'2       -1.1654    2.0541    0.6320 H         1 ATP         0.0364
     35 H4'         0.0403    1.7078    3.4343 H         1 ATP         0.0945
     36 H3'         1.5907    1.4859    1.1353 H         1 ATP         0.0703
     37 HO3'        2.1521    0.9800    3.3017 H         1 ATP         0.4099
     38 H2'        -0.0017    0.0018    0.0005 H         1 ATP         0.0676
     39 HO2'        0.9369   -2.0558    0.0825 H         1 ATP         0.4291
     40 H1'        -0.1998   -1.6319    2.6178 H         1 ATP         0.0950
     41 H8         -0.9697   -3.6300    1.2371 H         1 ATP         0.1135
     42 HN62       -6.4060   -2.5723   -1.2840 H         1 ATP         0.3588
     43 H2         -4.8409    1.4176    0.1757 H         1 ATP         0.0302
     44 H44        -6.0768   -0.2826   -0.7263 H         1 ATP         0.4215
@<TRIPOS>BOND
     1    1    2 2
     2    1    3 1
     3    1    4 1
     4    1    8 1
     5    4   32 1
     6    5    6 2
     7    5    7 1
     8    5    8 1
     9    5   12 1
    10    9   10 2
    11    9   11 1
    12    9   12 1
    13    9   13 1
    14   13   14 1
    15   14   15 1
    16   14   33 1
    17   14   34 1
    18   15   16 1
    19   15   17 1
    20   15   35 1
    21   16   21 1
    22   17   18 1
    23   17   19 1
    24   17   36 1
    25   18   37 1
    26   19   20 1
    27   19   21 1
    28   19   38 1
    29   20   39 1
    30   21   22 1
    31   21   40 1
    32   22   23 ar
    33   22   31 ar
    34   23   24 ar
    35   23   41 1
    36   24   25 ar
    37   25   26 ar
    38   25   31 ar
    39   26   27 2
    40   26   28 ar
    41   27   42 1
    42   28   29 ar
    43   28   44 1
    44   29   30 ar
    45   29   43 1
    46   30   31 ar
@<TRIPOS>SUBSTRUCTURE
     1 ATP         1 GROUP 0 A     ****
@<TRIPOS>MOLECULE
[[[3,4-dihydroxy-5-(6-imino-1~{H}-purin-9-yl)tetrahydrofuran-2-yl]methoxy-oxido-phosphoryl]oxy-oxido-phosphoryl] hydrogen phosphate
   44    46     1     0     0
SMALL
USER_CHARGES

@<TRIPOS>ATOM
      1 PG          1.3360    5.2889    7.1864 P.3       1 ATP         1.5257
      2 O1G         2.1322    6.5040    6.7657 O.co2     1 ATP        -0.8737
      3 O2G         2.0180    4.0882    7.8035 O.co2     1 ATP        -0.8737
      4 O3G         0.1377    5.7739    8.1838 O.3       1 ATP        -0.7971
      5 PB         -0.6341    5.6263    5.0073 P.3       1 ATP         1.6824
      6 O1B        -1.8155    6.0233    5.8643 O.co2     1 ATP        -0.8925
      7 O2B         0.1304    6.6537    4.2028 O.co2     1 ATP        -0.8925
      8 O3B         0.4233    4.7903    5.9286 O.3       1 ATP        -0.8047
      9 PA         -2.1561    4.4278    2.7707 P.3       1 ATP         1.5908
     10 O1A        -1.6129    5.3161    1.6725 O.co2     1 ATP        -0.8932
     11 O2A        -3.5422    4.6538    3.3340 O.co2     1 ATP        -0.8932
     12 O3A        -1.0930    4.4169    4.0115 O.3       1 ATP        -0.8088
     13 O5'        -2.0401    2.8620    2.3128 O.3       1 ATP        -0.5646
     14 C5'        -0.8811    2.4285    1.6206 C.3       1 ATP         0.2204
     15 C4'        -0.1994    1.3333    2.4288 C.3       1 ATP         0.0965
     16 O4'        -1.1285    0.2356    2.5840 O.3       1 ATP        -0.3907
     17 C3'         1.0324    0.7610    1.7344 C.3       1 ATP         0.0763
     18 O3'         1.9175    0.2377    2.7247 O.3       1 ATP        -0.5884
     19 C2'         0.4468   -0.3802    0.9263 C.3       1 ATP         0.0784
     20 O2'         1.3993   -1.3703    0.5961 O.3       1 ATP        -0.6085
     21 C1'        -0.6159   -0.9100    1.8769 C.3       1 ATP         0.2186
     22 N9         -1.7127   -1.6108    1.2130 N.pl3     1 ATP        -0.1699
     23 C8         -2.5485   -1.0808    0.2609 C.ar      1 ATP         0.4438
     24 N7         -3.4476   -1.9486   -0.1593 N.2       1 ATP        -0.6280
     25 C5         -3.1762   -3.0816    0.5530 C.ar      1 ATP         0.2109
     26 C6         -3.8510   -4.3579    0.5006 C.ar      1 ATP         0.6180
     27 N6         -4.8468   -4.5293   -0.2961 N.2       1 ATP        -0.8319
     28 N1         -3.2499   -5.2342    1.3937 N.pl3     1 ATP        -0.8664
     29 C2         -2.1646   -4.9275    2.2116 C.ar      1 ATP         0.5952
     30 N3         -1.5382   -3.7840    2.2778 N.2       1 ATP        -0.5599
     31 C4         -2.1054   -2.9018    1.4120 C.ar      1 ATP         0.0076
     32 HOG3       -0.4719    5.0957    8.5455 H         1 ATP         0.4101
     33 H5'1       -1.1767    2.0502    0.6368 H         1 ATP         0.0364
     34 H5'2       -0.2080    3.2814    1.4876 H         1 ATP         0.0364
     35 H4'         0.0403    1.7078    3.4343 H         1 ATP         0.0945
     36 H3'         1.5907    1.4859    1.1353 H         1 ATP         0.0703
     37 HO3'        2.1521    0.9800    3.3017 H         1 ATP         0.4099
     38 H2'        -0.0017    0.0018    0.0005 H         1 ATP         0.0676
     39 HO2'        2.0953   -0.9375    0.0709 H         1 ATP         0.4291
     40 H1'        -0.1998   -1.6319    2.6178 H         1 ATP         0.0950
     41 H8         -2.4515   -0.0599   -0.0829 H         1 ATP         0.1135
     42 HN62       -5.1990   -5.4882   -0.2005 H         1 ATP         0.3588
     43 H2         -1.8555   -5.7783    2.8388 H         1 ATP         0.0302
     44 H44        -3.6312   -6.1750    1.4526 H         1 ATP         0.4215
@<TRIPOS>BOND
     1    1    2 2
     2    1    3 1
     3    1    4 1
     4    1    8 1
     5    4   32 1
     6    5    6 2
     7    5    7 1
     8    5    8 1
     9    5   12 1
    10    9   10 2
    11    9   11 1
    12    9   12 1
    13    9   13 1
    14   13   14 1
    15   14   15 1
    16   14   33 1
    17   14   34 1
    18   15   16 1
    19   15   17 1
    20   15   35 1
    21   16   21 1
    22   17   18 1
    23   17   19 1
    24   17   36 1
    25   18   37 1
    26   19   20 1
    27   19   21 1
    28   19   38 1
    29   20   39 1
    30   21   22 1
    31   21   40 1
    32   22   23 ar
    33   22   31 ar
    34   23   24 ar
    35   23   41 1
    36   24   25 ar
    37   25   26 ar
    38   25   31 ar
    39   26   27 2
    40   26   28 ar
    41   27   42 1
    42   28   29 ar
    43   28   44 1
    44   29   30 ar
    45   29   43 1
    46   30   31 ar
@<TRIPOS>SUBSTRUCTURE
     1 ATP         1 GROUP 0 A     ****
@<TRIPOS>MOLECULE
[[[3,4-dihydroxy-5-(6-imino-1~{H}-purin-9-yl)tetrahydrofuran-2-yl]methoxy-oxido-phosphoryl]oxy-oxido-phosphoryl] hydrogen phosphate
   44    46     1     0     0
SMALL
USER_CHARGES

@<TRIPOS>ATOM
      1 PG         -4.6311    7.9008    1.8770 P.3       1 ATP         1.5257
      2 O1G        -5.2199    7.9620    3.2688 O.co2     1 ATP        -0.8737
      3 O2G        -5.5072    7.6332    0.6734 O.co2     1 ATP        -0.8737
      4 O3G        -3.7882    9.2734    1.6097 O.3       1 ATP        -0.7971
      5 PB         -2.0719    6.7716    2.8355 P.3       1 ATP         1.6824
      6 O1B        -1.2041    7.9796    2.5614 O.co2     1 ATP        -0.8925
      7 O2B        -2.5170    6.4293    4.2399 O.co2     1 ATP        -0.8925
      8 O3B        -3.3881    6.8432    1.8721 O.3       1 ATP        -0.8047
      9 PA          0.0330    4.7083    2.5757 P.3       1 ATP         1.5908
     10 O1A        -0.1146    4.1098    3.9578 O.co2     1 ATP        -0.8932
     11 O2A         1.1815    5.6399    2.2548 O.co2     1 ATP        -0.8932
     12 O3A        -1.3630    5.4574    2.1758 O.3       1 ATP        -0.8088
     13 O5'         0.0178    3.5131    1.4595 O.3       1 ATP        -0.5646
     14 C5'        -0.8811    2.4285    1.6206 C.3       1 ATP         0.2204
     15 C4'        -0.1994    1.3333    2.4288 C.3       1 ATP         0.0965
     16 O4'        -1.1285    0.2356    2.5840 O.3       1 ATP        -0.3907
     17 C3'         1.0324    0.7610    1.7344 C.3       1 ATP         0.0763
     18 O3'         1.9175    0.2377    2.7247 O.3       1 ATP        -0.5884
     19 C2'         0.4468   -0.3802    0.9263 C.3       1 ATP         0.0784
     20 O2'         1.3993   -1.3703    0.5961 O.3       1 ATP        -0.6085
     21 C1'        -0.6159   -0.9100    1.8769 C.3       1 ATP         0.2186
     22 N9         -1.7127   -1.6108    1.2130 N.pl3     1 ATP        -0.1699
     23 C8         -2.8662   -1.0361    0.7388 C.ar      1 ATP         0.4438
     24 N7         -3.6774   -1.9166    0.1867 N.2       1 ATP        -0.6280
     25 C5         -3.0159   -3.1045    0.3122 C.ar      1 ATP         0.2109
     26 C6         -3.4377   -4.4169   -0.1199 C.ar      1 ATP         0.6180
     27 N6         -4.5720   -4.5691   -0.7080 N.2       1 ATP        -0.8319
     28 N1         -2.4600   -5.3463    0.2071 N.pl3     1 ATP        -0.8664
     29 C2         -1.2595   -5.0554    0.8515 C.ar      1 ATP         0.5952
     30 N3         -0.8555   -3.8803    1.2516 N.2       1 ATP        -0.5599
     31 C4         -1.7946   -2.9457    0.9448 C.ar      1 ATP         0.0076
     32 HOG3       -3.3421    9.3862    0.7434 H         1 ATP         0.4101
     33 H5'1       -1.7771    2.7849    2.1387 H         1 ATP         0.0364
     34 H5'2       -1.1654    2.0541    0.6320 H         1 ATP         0.0364
     35 H4'         0.0403    1.7078    3.4343 H         1 ATP         0.0945
     36 H3'         1.5907    1.4859    1.1353 H         1 ATP         0.0703
     37 HO3'        2.6839   -0.1150    2.2479 H         1 ATP         0.4099
     38 H2'        -0.0017    0.0018    0.0005 H         1 ATP         0.0676
     39 HO2'        2.0953   -0.9375    0.0709 H         1 ATP         0.4291
     40 H1'        -0.1998   -1.6319    2.6178 H         1 ATP         0.0950
     41 H8         -3.0558    0.0252    0.8256 H         1 ATP         0.1135
     42 HN62       -4.7047   -5.5592   -0.9421 H         1 ATP         0.3588
     43 H2         -0.6372   -5.9505    1.0077 H         1 ATP         0.0302
     44 H44        -2.6338   -6.3155   -0.0469 H         1 ATP         0.4215
@<TRIPOS>BOND
     1    1    2 2
     2    1    3 1
     3    1    4 1
     4    1    8 1
     5    4   32 1
     6    5    6 2
     7    5    7 1
     8    5    8 1
     9    5   12 1
    10    9   10 2
    11    9   11 1
    12    9   12 1
    13    9   13 1
    14   13   14 1
    15   14   15 1
    16   14   33 1
    17   14   34 1
    18   15   16 1
    19   15   17 1
    20   15   35 1
    21   16   21 1
    22   17   18 1
    23   17   19 1
    24   17   36 1
    25   18   37 1
    26   19   20 1
    27   19   21 1
    28   19   38 1
    29   20   39 1
    30   21   22 1
    31   21   40 1
    32   22   23 ar
    33   22   31 ar
    34   23   24 ar
    35   23   41 1
    36   24   25 ar
    37   25   26 ar
    38   25   31 ar
    39   26   27 2
    40   26   28 ar
    41   27   42 1
    42   28   29 ar
    43   28   44 1
    44   29   30 ar
    45   29   43 1
    46   30   31 ar
@<TRIPOS>SUBSTRUCTURE
     1 ATP         1 GROUP 0 A     ****
@<TRIPOS>MOLECULE
[[[3,4-dihydroxy-5-(6-imino-1~{H}-purin-9-yl)tetrahydrofuran-2-yl]methoxy-oxido-phosphoryl]oxy-oxido-phosphoryl] hydrogen phosphate
   44    46     1     0     0
SMALL
USER_CHARGES

@<TRIPOS>ATOM
      1 PG          7.5280    2.7525   -5.2573 P.3       1 ATP         1.5257
      2 O1G         8.4324    1.5408   -5.2915 O.co2     1 ATP        -0.8737
      3 O2G         8.0187    4.1023   -5.7316 O.co2     1 ATP        -0.8737
      4 O3G         6.1489    2.3930   -6.0540 O.3       1 ATP        -0.7971
      5 PB          7.6584    3.2751   -2.3498 P.3       1 ATP         1.6824
      6 O1B         8.5789    2.1329   -1.9815 O.co2     1 ATP        -0.8925
      7 O2B         8.1663    4.6978   -2.4242 O.co2     1 ATP        -0.8925
      8 O3B         6.9104    2.9122   -3.7550 O.3       1 ATP        -0.8047
      9 PA          6.2486    3.4952    0.2423 P.3       1 ATP         1.5908
     10 O1A         6.5935    4.9413    0.5251 O.co2     1 ATP        -0.8932
     11 O2A         6.9728    2.3737    0.9547 O.co2     1 ATP        -0.8932
     12 O3A         6.3554    3.2347   -1.3672 O.3       1 ATP        -0.8088
     13 O5'         4.6405    3.2699    0.4378 O.3       1 ATP        -0.5646
     14 C5'         4.0922    1.9801    0.2227 C.3       1 ATP         0.2204
     15 C4'         2.5944    2.0310    0.4653 C.3       1 ATP         0.0965
     16 O4'         1.9327    2.5740   -0.6889 O.3       1 ATP        -0.3907
     17 C3'         1.9685    0.6634    0.6767 C.3       1 ATP         0.0763
     18 O3'         2.1425    0.1975    1.9977 O.3       1 ATP        -0.5884
     19 C2'         0.5176    0.9128    0.3099 C.3       1 ATP         0.0784
     20 O2'        -0.2103    1.4454    1.4152 O.3       1 ATP        -0.6085
     21 C1'         0.6219    1.9765   -0.7844 C.3       1 ATP         0.2186
     22 N9          0.4237    1.4496   -2.1357 N.pl3     1 ATP        -0.1699
     23 C8          1.4069    0.9710   -2.9662 C.ar      1 ATP         0.4438
     24 N7          0.9316    0.5623   -4.1260 N.2       1 ATP        -0.6280
     25 C5         -0.4120    0.7884   -4.0344 C.ar      1 ATP         0.2109
     26 C6         -1.4353    0.5283   -5.0204 C.ar      1 ATP         0.6180
     27 N6         -1.1199    0.0176   -6.1586 N.2       1 ATP        -0.8319
     28 N1         -2.6704    0.9095   -4.5147 N.pl3     1 ATP        -0.8664
     29 C2         -2.8863    1.4571   -3.2520 C.ar      1 ATP         0.5952
     30 N3         -1.9805    1.7017   -2.3442 N.2       1 ATP        -0.5599
     31 C4         -0.7561    1.3381   -2.8112 C.ar      1 ATP         0.0076
     32 HOG3        5.4545    3.0827   -6.1202 H         1 ATP         0.4101
     33 H5'1        4.3028    1.6728   -0.8066 H         1 ATP         0.0364
     34 H5'2        4.5677    1.2738    0.9106 H         1 ATP         0.0364
     35 H4'         2.3752    2.7029    1.3156 H         1 ATP         0.0945
     36 H3'         2.4336   -0.1217   -0.0015 H         1 ATP         0.0703
     37 HO3'        1.7160   -0.6716    2.0397 H         1 ATP         0.4099
     38 H2'         0.0316    0.0155   -0.0339 H         1 ATP         0.0676
     39 HO2'       -0.1608    0.7921    2.1351 H         1 ATP         0.4291
     40 H1'        -0.1474    2.7798   -0.6651 H         1 ATP         0.0950
     41 H8          2.4466    0.9468   -2.6694 H         1 ATP         0.1135
     42 HN62       -1.9661   -0.0965   -6.7275 H         1 ATP         0.3588
     43 H2         -3.9481    1.6825   -3.0660 H         1 ATP         0.0302
     44 H44        -3.4814    0.7753   -5.1133 H         1 ATP         0.4215
@<TRIPOS>BOND
     1    1    2 2
     2    1    3 1
     3    1    4 1
     4    1    8 1
     5    4   32 1
     6    5    6 2
     7    5    7 1
     8    5    8 1
     9    5   12 1
    10    9   10 2
    11    9   11 1
    12    9   12 1
    13    9   13 1
    14   13   14 1
    15   14   15 1
    16   14   33 1
    17   14   34 1
    18   15   16 1
    19   15   17 1
    20   15   35 1
    21   16   21 1
    22   17   18 1
    23   17   19 1
    24   17   36 1
    25   18   37 1
    26   19   20 1
    27   19   21 1
    28   19   38 1
    29   20   39 1
    30   21   22 1
    31   21   40 1
    32   22   23 ar
    33   22   31 ar
    34   23   24 ar
    35   23   41 1
    36   24   25 ar
    37   25   26 ar
    38   25   31 ar
    39   26   27 2
    40   26   28 ar
    41   27   42 1
    42   28   29 ar
    43   28   44 1
    44   29   30 ar
    45   29   43 1
    46   30   31 ar
@<TRIPOS>SUBSTRUCTURE
     1 ATP         1 GROUP 0 A     ****
@<TRIPOS>MOLECULE
[[[3,4-dihydroxy-5-(6-imino-1~{H}-purin-9-yl)tetrahydrofuran-2-yl]methoxy-oxido-phosphoryl]oxy-oxido-phosphoryl] hydrogen phosphate
   44    46     1     0     0
SMALL
USER_CHARGES

@<TRIPOS>ATOM
      1 PG         -4.8034    5.1763    6.0360 P.3       1 ATP         1.5257
      2 O1G        -6.1611    5.1676    5.3696 O.co2     1 ATP        -0.8737
      3 O2G        -4.3712    6.3369    6.9043 O.co2     1 ATP        -0.8737
      4 O3G        -4.6380    3.7971    6.8941 O.3       1 ATP        -0.7971
      5 PB         -3.1840    5.8326    3.6505 P.3       1 ATP         1.6824
      6 O1B        -4.3183    5.9115    2.6532 O.co2     1 ATP        -0.8925
      7 O2B        -2.5279    7.0834    4.1912 O.co2     1 ATP        -0.8925
      8 O3B        -3.6561    4.9039    4.9077 O.3       1 ATP        -0.8047
      9 PA         -1.0483    5.0551    1.7560 P.3       1 ATP         1.5908
     10 O1A        -0.1202    6.2196    2.0261 O.co2     1 ATP        -0.8932
     11 O2A        -1.8997    5.0183    0.5057 O.co2     1 ATP        -0.8932
     12 O3A        -2.0259    4.8517    3.0493 O.3       1 ATP        -0.8088
     13 O5'        -0.2062    3.6557    1.8417 O.3       1 ATP        -0.5646
     14 C5'        -0.8811    2.4285    1.6206 C.3       1 ATP         0.2204
     15 C4'        -0.1994    1.3333    2.4288 C.3       1 ATP         0.0965
     16 O4'        -1.1285    0.2356    2.5840 O.3       1 ATP        -0.3907
     17 C3'         1.0324    0.7610    1.7344 C.3       1 ATP         0.0763
     18 O3'         1.9175    0.2377    2.7247 O.3       1 ATP        -0.5884
     19 C2'         0.4468   -0.3802    0.9263 C.3       1 ATP         0.0784
     20 O2'         1.3993   -1.3703    0.5961 O.3       1 ATP        -0.6085
     21 C1'        -0.6159   -0.9100    1.8769 C.3       1 ATP         0.2186
     22 N9         -1.7127   -1.6108    1.2130 N.pl3     1 ATP        -0.1699
     23 C8         -2.5485   -1.0808    0.2609 C.ar      1 ATP         0.4438
     24 N7         -3.4476   -1.9486   -0.1593 N.2       1 ATP        -0.6280
     25 C5         -3.1762   -3.0816    0.5530 C.ar      1 ATP         0.2109
     26 C6         -3.8510   -4.3579    0.5006 C.ar      1 ATP         0.6180
     27 N6         -4.8468   -4.5293   -0.2961 N.2       1 ATP        -0.8319
     28 N1         -3.2499   -5.2342    1.3937 N.pl3     1 ATP        -0.8664
     29 C2         -2.1646   -4.9275    2.2116 C.ar      1 ATP         0.5952
     30 N3         -1.5382   -3.7840    2.2778 N.2       1 ATP        -0.5599
     31 C4         -2.1054   -2.9018    1.4120 C.ar      1 ATP         0.0076
     32 HOG3       -3.8032    3.6521    7.3885 H         1 ATP         0.4101
     33 H5'1       -1.9256    2.5380    1.9293 H         1 ATP         0.0364
     34 H5'2       -0.8474    2.1930    0.5521 H         1 ATP         0.0364
     35 H4'         0.0403    1.7078    3.4343 H         1 ATP         0.0945
     36 H3'         1.5907    1.4859    1.1353 H         1 ATP         0.0703
     37 HO3'        2.6839   -0.1150    2.2479 H         1 ATP         0.4099
     38 H2'        -0.0017    0.0018    0.0005 H         1 ATP         0.0676
     39 HO2'        0.9369   -2.0558    0.0825 H         1 ATP         0.4291
     40 H1'        -0.1998   -1.6319    2.6178 H         1 ATP         0.0950
     41 H8         -2.4515   -0.0599   -0.0829 H         1 ATP         0.1135
     42 HN62       -5.1990   -5.4882   -0.2005 H         1 ATP         0.3588
     43 H2         -1.8555   -5.7783    2.8388 H         1 ATP         0.0302
     44 H44        -3.6312   -6.1750    1.4526 H         1 ATP         0.4215
@<TRIPOS>BOND
     1    1    2 2
     2    1    3 1
     3    1    4 1
     4    1    8 1
     5    4   32 1
     6    5    6 2
     7    5    7 1
     8    5    8 1
     9    5   12 1
    10    9   10 2
    11    9   11 1
    12    9   12 1
    13    9   13 1
    14   13   14 1
    15   14   15 1
    16   14   33 1
    17   14   34 1
    18   15   16 1
    19   15   17 1
    20   15   35 1
    21   16   21 1
    22   17   18 1
    23   17   19 1
    24   17   36 1
    25   18   37 1
    26   19   20 1
    27   19   21 1
    28   19   38 1
    29   20   39 1
    30   21   22 1
    31   21   40 1
    32   22   23 ar
    33   22   31 ar
    34   23   24 ar
    35   23   41 1
    36   24   25 ar
    37   25   26 ar
    38   25   31 ar
    39   26   27 2
    40   26   28 ar
    41   27   42 1
    42   28   29 ar
    43   28   44 1
    44   29   30 ar
    45   29   43 1
    46   30   31 ar
@<TRIPOS>SUBSTRUCTURE
     1 ATP         1 GROUP 0 A     ****
@<TRIPOS>MOLECULE
[[[3,4-dihydroxy-5-(6-imino-1~{H}-purin-9-yl)tetrahydrofuran-2-yl]methoxy-oxido-phosphoryl]oxy-oxido-phosphoryl] hydrogen phosphate
   44    46     1     0     0
SMALL
USER_CHARGES

@<TRIPOS>ATOM
      1 PG         -4.8877    5.1361   -2.7437 P.3       1 ATP         1.5257
      2 O1G        -5.3933    3.8605   -3.3798 O.co2     1 ATP        -0.8737
      3 O2G        -4.0792    6.1350   -3.5413 O.co2     1 ATP        -0.8737
      4 O3G        -6.1531    5.9154   -2.0674 O.3       1 ATP        -0.7971
      5 PB         -3.4496    5.7424   -0.2322 P.3       1 ATP         1.6824
      6 O1B        -2.3164    6.5408   -0.8373 O.co2     1 ATP        -0.8925
      7 O2B        -4.5889    6.4243    0.4920 O.co2     1 ATP        -0.8925
      8 O3B        -4.0712    4.7626   -1.3808 O.3       1 ATP        -0.8047
      9 PA         -2.0037    4.7528    2.1522 P.3       1 ATP         1.5908
     10 O1A        -2.9381    5.3281    3.1945 O.co2     1 ATP        -0.8932
     11 O2A        -0.6722    5.4096    1.8602 O.co2     1 ATP        -0.8932
     12 O3A        -2.8191    4.5967    0.7449 O.3       1 ATP        -0.8088
     13 O5'        -1.7336    3.1724    2.4750 O.3       1 ATP        -0.5646
     14 C5'        -0.8811    2.4285    1.6206 C.3       1 ATP         0.2204
     15 C4'        -0.1994    1.3333    2.4288 C.3       1 ATP         0.0965
     16 O4'        -1.1285    0.2356    2.5840 O.3       1 ATP        -0.3907
     17 C3'         1.0324    0.7610    1.7344 C.3       1 ATP         0.0763
     18 O3'         1.9175    0.2377    2.7247 O.3       1 ATP        -0.5884
     19 C2'         0.4468   -0.3802    0.9263 C.3       1 ATP         0.0784
     20 O2'         1.3993   -1.3703    0.5961 O.3       1 ATP        -0.6085
     21 C1'        -0.6159   -0.9100    1.8769 C.3       1 ATP         0.2186
     22 N9         -1.7127   -1.6108    1.2130 N.pl3     1 ATP        -0.1699
     23 C8         -2.5485   -1.0808    0.2609 C.ar      1 ATP         0.4438
     24 N7         -3.4476   -1.9486   -0.1593 N.2       1 ATP        -0.6280
     25 C5         -3.1762   -3.0816    0.5530 C.ar      1 ATP         0.2109
     26 C6         -3.8510   -4.3579    0.5006 C.ar      1 ATP         0.6180
     27 N6         -4.8468   -4.5293   -0.2961 N.2       1 ATP        -0.8319
     28 N1         -3.2499   -5.2342    1.3937 N.pl3     1 ATP        -0.8664
     29 C2         -2.1646   -4.9275    2.2116 C.ar      1 ATP         0.5952
     30 N3         -1.5382   -3.7840    2.2778 N.2       1 ATP        -0.5599
     31 C4         -2.1054   -2.9018    1.4120 C.ar      1 ATP         0.0076
     32 HOG3       -5.9869    6.7676   -1.6111 H         1 ATP         0.4101
     33 H5'1       -1.4800    1.9927    0.8146 H         1 ATP         0.0364
     34 H5'2       -0.1367    3.1040    1.1872 H         1 ATP         0.0364
     35 H4'         0.0403    1.7078    3.4343 H         1 ATP         0.0945
     36 H3'         1.5907    1.4859    1.1353 H         1 ATP         0.0703
     37 HO3'        2.1521    0.9800    3.3017 H         1 ATP         0.4099
     38 H2'        -0.0017    0.0018    0.0005 H         1 ATP         0.0676
     39 HO2'        0.9369   -2.0558    0.0825 H         1 ATP         0.4291
     40 H1'        -0.1998   -1.6319    2.6178 H         1 ATP         0.0950
     41 H8         -2.4515   -0.0599   -0.0829 H         1 ATP         0.1135
     42 HN62       -5.1990   -5.4882   -0.2005 H         1 ATP         0.3588
     43 H2         -1.8555   -5.7783    2.8388 H         1 ATP         0.0302
     44 H44        -3.6312   -6.1750    1.4526 H         1 ATP         0.4215
@<TRIPOS>BOND
     1    1    2 2
     2    1    3 1
     3    1    4 1
     4    1    8 1
     5    4   32 1
     6    5    6 2
     7    5    7 1
     8    5    8 1
     9    5   12 1
    10    9   10 2
    11    9   11 1
    12    9   12 1
    13    9   13 1
    14   13   14 1
    15   14   15 1
    16   14   33 1
    17   14   34 1
    18   15   16 1
    19   15   17 1
    20   15   35 1
    21   16   21 1
    22   17   18 1
    23   17   19 1
    24   17   36 1
    25   18   37 1
    26   19   20 1
    27   19   21 1
    28   19   38 1
    29   20   39 1
    30   21   22 1
    31   21   40 1
    32   22   23 ar
    33   22   31 ar
    34   23   24 ar
    35   23   41 1
    36   24   25 ar
    37   25   26 ar
    38   25   31 ar
    39   26   27 2
    40   26   28 ar
    41   27   42 1
    42   28   29 ar
    43   28   44 1
    44   29   30 ar
    45   29   43 1
    46   30   31 ar
@<TRIPOS>SUBSTRUCTURE
     1 ATP         1 GROUP 0 A     ****
@<TRIPOS>MOLECULE
[[[3,4-dihydroxy-5-(6-imino-1~{H}-purin-9-yl)tetrahydrofuran-2-yl]methoxy-oxido-phosphoryl]oxy-oxido-phosphoryl] hydrogen phosphate
   44    46     1     0     0
SMALL
USER_CHARGES

@<TRIPOS>ATOM
      1 PG          6.1789    5.8239   -4.2854 P.3       1 ATP         1.5257
      2 O1G         4.8683    6.5245   -4.0044 O.co2     1 ATP        -0.8737
      3 O2G         6.5602    5.4239   -5.6934 O.co2     1 ATP        -0.8737
      4 O3G         7.3907    6.7179   -3.6543 O.3       1 ATP        -0.7971
      5 PB          5.4264    3.1416   -3.2941 P.3       1 ATP         1.6824
      6 O1B         4.0120    3.4726   -2.8730 O.co2     1 ATP        -0.8925
      7 O2B         5.7053    2.3720   -4.5659 O.co2     1 ATP        -0.8925
      8 O3B         6.3028    4.5190   -3.3129 O.3       1 ATP        -0.8047
      9 PA          5.8979    0.9309   -1.3848 P.3       1 ATP         1.5908
     10 O1A         6.7868    0.7713   -0.1705 O.co2     1 ATP        -0.8932
     11 O2A         5.9018   -0.1050   -2.4878 O.co2     1 ATP        -0.8932
     12 O3A         6.1804    2.3945   -2.0539 O.3       1 ATP        -0.8088
     13 O5'         4.3516    1.1575   -0.9026 O.3       1 ATP        -0.5646
     14 C5'         4.0922    1.9801    0.2227 C.3       1 ATP         0.2204
     15 C4'         2.5944    2.0310    0.4653 C.3       1 ATP         0.0965
     16 O4'         1.9327    2.5740   -0.6889 O.3       1 ATP        -0.3907
     17 C3'         1.9685    0.6634    0.6767 C.3       1 ATP         0.0763
     18 O3'         2.1425    0.1975    1.9977 O.3       1 ATP        -0.5884
     19 C2'         0.5176    0.9128    0.3099 C.3       1 ATP         0.0784
     20 O2'        -0.2103    1.4454    1.4152 O.3       1 ATP        -0.6085
     21 C1'         0.6219    1.9765   -0.7844 C.3       1 ATP         0.2186
     22 N9          0.4237    1.4496   -2.1357 N.pl3     1 ATP        -0.1699
     23 C8          1.1891    0.4862   -2.7452 C.ar      1 ATP         0.4438
     24 N7          0.7743    0.2113   -3.9661 N.2       1 ATP        -0.6280
     25 C5         -0.3017    1.0326   -4.1458 C.ar      1 ATP         0.2109
     26 C6         -1.1512    1.1578   -5.3076 C.ar      1 ATP         0.6180
     27 N6         -0.9306    0.4354   -6.3493 N.2       1 ATP        -0.8319
     28 N1         -2.1281    2.1133   -5.0636 N.pl3     1 ATP        -0.8664
     29 C2         -2.2653    2.8370   -3.8811 C.ar      1 ATP         0.5952
     30 N3         -1.5123    2.7429   -2.8189 N.2       1 ATP        -0.5599
     31 C4         -0.5429    1.8121   -3.0273 C.ar      1 ATP         0.0076
     32 HOG3        8.3111    6.3938   -3.7545 H         1 ATP         0.4101
     33 H5'1        4.6069    1.5618    1.0936 H         1 ATP         0.0364
     34 H5'2        4.4824    2.9837    0.0254 H         1 ATP         0.0364
     35 H4'         2.3752    2.7029    1.3156 H         1 ATP         0.0945
     36 H3'         2.4336   -0.1217   -0.0015 H         1 ATP         0.0703
     37 HO3'        3.0987    0.1465    2.1461 H         1 ATP         0.4099
     38 H2'         0.0316    0.0155   -0.0339 H         1 ATP         0.0676
     39 HO2'       -0.1608    0.7921    2.1351 H         1 ATP         0.4291
     40 H1'        -0.1474    2.7798   -0.6651 H         1 ATP         0.0950
     41 H8          2.0323    0.0251   -2.2492 H         1 ATP         0.1135
     42 HN62       -1.6261    0.6558   -7.0707 H         1 ATP         0.3588
     43 H2         -3.1123    3.5402   -3.9130 H         1 ATP         0.0302
     44 H44        -2.7975    2.2966   -5.8068 H         1 ATP         0.4215
@<TRIPOS>BOND
     1    1    2 2
     2    1    3 1
     3    1    4 1
     4    1    8 1
     5    4   32 1
     6    5    6 2
     7    5    7 1
     8    5    8 1
     9    5   12 1
    10    9   10 2
    11    9   11 1
    12    9   12 1
    13    9   13 1
    14   13   14 1
    15   14   15 1
    16   14   33 1
    17   14   34 1
    18   15   16 1
    19   15   17 1
    20   15   35 1
    21   16   21 1
    22   17   18 1
    23   17   19 1
    24   17   36 1
    25   18   37 1
    26   19   20 1
    27   19   21 1
    28   19   38 1
    29   20   39 1
    30   21   22 1
    31   21   40 1
    32   22   23 ar
    33   22   31 ar
    34   23   24 ar
    35   23   41 1
    36   24   25 ar
    37   25   26 ar
    38   25   31 ar
    39   26   27 2
    40   26   28 ar
    41   27   42 1
    42   28   29 ar
    43   28   44 1
    44   29   30 ar
    45   29   43 1
    46   30   31 ar
@<TRIPOS>SUBSTRUCTURE
     1 ATP         1 GROUP 0 A     ****
@<TRIPOS>MOLECULE
[[[3,4-dihydroxy-5-(6-imino-1~{H}-purin-9-yl)tetrahydrofuran-2-yl]methoxy-oxido-phosphoryl]oxy-oxido-phosphoryl] hydrogen phosphate
   44    46     1     0     0
SMALL
USER_CHARGES

@<TRIPOS>ATOM
      1 PG         -4.1440    4.3407   -1.4248 P.3       1 ATP         1.5257
      2 O1G        -5.0296    4.0771   -0.2274 O.co2     1 ATP        -0.8737
      3 O2G        -3.3290    3.2295   -2.0483 O.co2     1 ATP        -0.8737
      4 O3G        -5.0455    5.0405   -2.5925 O.3       1 ATP        -0.7971
      5 PB         -1.9402    5.7103   -0.0068 P.3       1 ATP         1.6824
      6 O1B        -1.2320    7.0311   -0.2105 O.co2     1 ATP        -0.8925
      7 O2B        -2.4614    5.3025    1.3532 O.co2     1 ATP        -0.8925
      8 O3B        -3.1570    5.5965   -1.0894 O.3       1 ATP        -0.8047
      9 PA          0.4528    3.9705   -0.0493 P.3       1 ATP         1.5908
     10 O1A         1.4111    5.1388    0.0343 O.co2     1 ATP        -0.8932
     11 O2A         0.8144    2.7281   -0.8338 O.co2     1 ATP        -0.8932
     12 O3A        -0.9922    4.5136   -0.5848 O.3       1 ATP        -0.8088
     13 O5'         0.0178    3.5131    1.4595 O.3       1 ATP        -0.5646
     14 C5'        -0.8811    2.4285    1.6206 C.3       1 ATP         0.2204
     15 C4'        -0.1994    1.3333    2.4288 C.3       1 ATP         0.0965
     16 O4'        -1.1285    0.2356    2.5840 O.3       1 ATP        -0.3907
     17 C3'         1.0324    0.7610    1.7344 C.3       1 ATP         0.0763
     18 O3'         1.9175    0.2377    2.7247 O.3       1 ATP        -0.5884
     19 C2'         0.4468   -0.3802    0.9263 C.3       1 ATP         0.0784
     20 O2'         1.3993   -1.3703    0.5961 O.3       1 ATP        -0.6085
     21 C1'        -0.6159   -0.9100    1.8769 C.3       1 ATP         0.2186
     22 N9         -1.7127   -1.6108    1.2130 N.pl3     1 ATP        -0.1699
     23 C8         -2.8662   -1.0361    0.7388 C.ar      1 ATP         0.4438
     24 N7         -3.6774   -1.9166    0.1867 N.2       1 ATP        -0.6280
     25 C5         -3.0159   -3.1045    0.3122 C.ar      1 ATP         0.2109
     26 C6         -3.4377   -4.4169   -0.1199 C.ar      1 ATP         0.6180
     27 N6         -4.5720   -4.5691   -0.7080 N.2       1 ATP        -0.8319
     28 N1         -2.4600   -5.3463    0.2071 N.pl3     1 ATP        -0.8664
     29 C2         -1.2595   -5.0554    0.8515 C.ar      1 ATP         0.5952
     30 N3         -0.8555   -3.8803    1.2516 N.2       1 ATP        -0.5599
     31 C4         -1.7946   -2.9457    0.9448 C.ar      1 ATP         0.0076
     32 HOG3       -4.6110    5.2752   -3.4401 H         1 ATP         0.4101
     33 H5'1       -1.7771    2.7849    2.1387 H         1 ATP         0.0364
     34 H5'2       -1.1654    2.0541    0.6320 H         1 ATP         0.0364
     35 H4'         0.0403    1.7078    3.4343 H         1 ATP         0.0945
     36 H3'         1.5907    1.4859    1.1353 H         1 ATP         0.0703
     37 HO3'        2.1521    0.9800    3.3017 H         1 ATP         0.4099
     38 H2'        -0.0017    0.0018    0.0005 H         1 ATP         0.0676
     39 HO2'        2.0953   -0.9375    0.0709 H         1 ATP         0.4291
     40 H1'        -0.1998   -1.6319    2.6178 H         1 ATP         0.0950
     41 H8         -3.0558    0.0252    0.8256 H         1 ATP         0.1135
     42 HN62       -4.7047   -5.5592   -0.9421 H         1 ATP         0.3588
     43 H2         -0.6372   -5.9505    1.0077 H         1 ATP         0.0302
     44 H44        -2.6338   -6.3155   -0.0469 H         1 ATP         0.4215
@<TRIPOS>BOND
     1    1    2 2
     2    1    3 1
     3    1    4 1
     4    1    8 1
     5    4   32 1
     6    5    6 2
     7    5    7 1
     8    5    8 1
     9    5   12 1
    10    9   10 2
    11    9   11 1
    12    9   12 1
    13    9   13 1
    14   13   14 1
    15   14   15 1
    16   14   33 1
    17   14   34 1
    18   15   16 1
    19   15   17 1
    20   15   35 1
    21   16   21 1
    22   17   18 1
    23   17   19 1
    24   17   36 1
    25   18   37 1
    26   19   20 1
    27   19   21 1
    28   19   38 1
    29   20   39 1
    30   21   22 1
    31   21   40 1
    32   22   23 ar
    33   22   31 ar
    34   23   24 ar
    35   23   41 1
    36   24   25 ar
    37   25   26 ar
    38   25   31 ar
    39   26   27 2
    40   26   28 ar
    41   27   42 1
    42   28   29 ar
    43   28   44 1
    44   29   30 ar
    45   29   43 1
    46   30   31 ar
@<TRIPOS>SUBSTRUCTURE
     1 ATP         1 GROUP 0 A     ****
@<TRIPOS>MOLECULE
[[[3,4-dihydroxy-5-(6-imino-1~{H}-purin-9-yl)tetrahydrofuran-2-yl]methoxy-oxido-phosphoryl]oxy-oxido-phosphoryl] hydrogen phosphate
   44    46     1     0     0
SMALL
USER_CHARGES

@<TRIPOS>ATOM
      1 PG         -2.5648    7.5635   -1.7058 P.3       1 ATP         1.5257
      2 O1G        -1.4335    8.5651   -1.7713 O.co2     1 ATP        -0.8737
      3 O2G        -3.7928    7.8319   -0.8645 O.co2     1 ATP        -0.8737
      4 O3G        -3.0442    7.2222   -3.2288 O.3       1 ATP        -0.7971
      5 PB         -0.7462    5.2493   -1.9900 P.3       1 ATP         1.6824
      6 O1B        -1.1754    4.8258   -3.3771 O.co2     1 ATP        -0.8925
      7 O2B         0.5545    5.9871   -1.7636 O.co2     1 ATP        -0.8925
      8 O3B        -1.9581    6.1024   -1.3049 O.3       1 ATP        -0.8047
      9 PA         -1.9976    2.8867   -0.7222 P.3       1 ATP         1.5908
     10 O1A        -2.2806    2.1154   -1.9932 O.co2     1 ATP        -0.8932
     11 O2A        -3.1068    3.6179    0.0021 O.co2     1 ATP        -0.8932
     12 O3A        -0.7864    3.9453   -1.0089 O.3       1 ATP        -0.8088
     13 O5'        -1.2434    1.9104    0.3515 O.3       1 ATP        -0.5646
     14 C5'        -0.8811    2.4285    1.6206 C.3       1 ATP         0.2204
     15 C4'        -0.1994    1.3333    2.4288 C.3       1 ATP         0.0965
     16 O4'        -1.1285    0.2356    2.5840 O.3       1 ATP        -0.3907
     17 C3'         1.0324    0.7610    1.7344 C.3       1 ATP         0.0763
     18 O3'         1.9175    0.2377    2.7247 O.3       1 ATP        -0.5884
     19 C2'         0.4468   -0.3802    0.9263 C.3       1 ATP         0.0784
     20 O2'         1.3993   -1.3703    0.5961 O.3       1 ATP        -0.6085
     21 C1'        -0.6159   -0.9100    1.8769 C.3       1 ATP         0.2186
     22 N9         -1.7127   -1.6108    1.2130 N.pl3     1 ATP        -0.1699
     23 C8         -2.8662   -1.0361    0.7388 C.ar      1 ATP         0.4438
     24 N7         -3.6774   -1.9166    0.1867 N.2       1 ATP        -0.6280
     25 C5         -3.0159   -3.1045    0.3122 C.ar      1 ATP         0.2109
     26 C6         -3.4377   -4.4169   -0.1199 C.ar      1 ATP         0.6180
     27 N6         -4.5720   -4.5691   -0.7080 N.2       1 ATP        -0.8319
     28 N1         -2.4600   -5.3463    0.2071 N.pl3     1 ATP        -0.8664
     29 C2         -1.2595   -5.0554    0.8515 C.ar      1 ATP         0.5952
     30 N3         -0.8555   -3.8803    1.2516 N.2       1 ATP        -0.5599
     31 C4         -1.7946   -2.9457    0.9448 C.ar      1 ATP         0.0076
     32 HOG3       -3.7770    6.5824   -3.3553 H         1 ATP         0.4101
     33 H5'1       -0.2033    3.2760    1.4769 H         1 ATP         0.0364
     34 H5'2       -1.7841    2.7762    2.1323 H         1 ATP         0.0364
     35 H4'         0.0403    1.7078    3.4343 H         1 ATP         0.0945
     36 H3'         1.5907    1.4859    1.1353 H         1 ATP         0.0703
     37 HO3'        2.6839   -0.1150    2.2479 H         1 ATP         0.4099
     38 H2'        -0.0017    0.0018    0.0005 H         1 ATP         0.0676
     39 HO2'        2.0953   -0.9375    0.0709 H         1 ATP         0.4291
     40 H1'        -0.1998   -1.6319    2.6178 H         1 ATP         0.0950
     41 H8         -3.0558    0.0252    0.8256 H         1 ATP         0.1135
     42 HN62       -4.7047   -5.5592   -0.9421 H         1 ATP         0.3588
     43 H2         -0.6372   -5.9505    1.0077 H         1 ATP         0.0302
     44 H44        -2.6338   -6.3155   -0.0469 H         1 ATP         0.4215
@<TRIPOS>BOND
     1    1    2 2
     2    1    3 1
     3    1    4 1
     4    1    8 1
     5    4   32 1
     6    5    6 2
     7    5    7 1
     8    5    8 1
     9    5   12 1
    10    9   10 2
    11    9   11 1
    12    9   12 1
    13    9   13 1
    14   13   14 1
    15   14   15 1
    16   14   33 1
    17   14   34 1
    18   15   16 1
    19   15   17 1
    20   15   35 1
    21   16   21 1
    22   17   18 1
    23   17   19 1
    24   17   36 1
    25   18   37 1
    26   19   20 1
    27   19   21 1
    28   19   38 1
    29   20   39 1
    30   21   22 1
    31   21   40 1
    32   22   23 ar
    33   22   31 ar
    34   23   24 ar
    35   23   41 1
    36   24   25 ar
    37   25   26 ar
    38   25   31 ar
    39   26   27 2
    40   26   28 ar
    41   27   42 1
    42   28   29 ar
    43   28   44 1
    44   29   30 ar
    45   29   43 1
    46   30   31 ar
@<TRIPOS>SUBSTRUCTURE
     1 ATP         1 GROUP 0 A     ****
@<TRIPOS>MOLECULE
[[[3,4-dihydroxy-5-(6-imino-1~{H}-purin-9-yl)tetrahydrofuran-2-yl]methoxy-oxido-phosphoryl]oxy-oxido-phosphoryl] hydrogen phosphate
   44    46     1     0     0
SMALL
USER_CHARGES

@<TRIPOS>ATOM
      1 PG          0.5744    7.2477    2.2568 P.3       1 ATP         1.5257
      2 O1G         0.7969    5.8671    2.8329 O.co2     1 ATP        -0.8737
      3 O2G         0.0615    8.3775    3.1218 O.co2     1 ATP        -0.8737
      4 O3G         1.9533    7.7353    1.5311 O.3       1 ATP        -0.7971
      5 PB         -1.9372    6.6812    0.8026 P.3       1 ATP         1.6824
      6 O1B        -2.7613    7.5323    1.7428 O.co2     1 ATP        -0.8925
      7 O2B        -2.2893    6.5683   -0.6640 O.co2     1 ATP        -0.8925
      8 O3B        -0.3712    7.1245    0.9322 O.3       1 ATP        -0.8047
      9 PA         -2.9646    4.0418    1.6587 P.3       1 ATP         1.5908
     10 O1A        -3.4785    3.5900    0.3088 O.co2     1 ATP        -0.8932
     11 O2A        -3.9187    4.5390    2.7227 O.co2     1 ATP        -0.8932
     12 O3A        -1.8138    5.1788    1.4288 O.3       1 ATP        -0.8088
     13 O5'        -2.0401    2.8620    2.3128 O.3       1 ATP        -0.5646
     14 C5'        -0.8811    2.4285    1.6206 C.3       1 ATP         0.2204
     15 C4'        -0.1994    1.3333    2.4288 C.3       1 ATP         0.0965
     16 O4'        -1.1285    0.2356    2.5840 O.3       1 ATP        -0.3907
     17 C3'         1.0324    0.7610    1.7344 C.3       1 ATP         0.0763
     18 O3'         1.9175    0.2377    2.7247 O.3       1 ATP        -0.5884
     19 C2'         0.4468   -0.3802    0.9263 C.3       1 ATP         0.0784
     20 O2'         1.3993   -1.3703    0.5961 O.3       1 ATP        -0.6085
     21 C1'        -0.6159   -0.9100    1.8769 C.3       1 ATP         0.2186
     22 N9         -1.7127   -1.6108    1.2130 N.pl3     1 ATP        -0.1699
     23 C8         -2.0868   -2.9137    1.4327 C.ar      1 ATP         0.4438
     24 N7         -3.1125   -3.2756    0.6878 N.2       1 ATP        -0.6280
     25 C5         -3.4079   -2.1580   -0.0391 C.ar      1 ATP         0.2109
     26 C6         -4.4483   -1.9775   -1.0249 C.ar      1 ATP         0.6180
     27 N6         -5.2418   -2.9492   -1.3113 N.2       1 ATP        -0.8319
     28 N1         -4.3937   -0.6823   -1.5211 N.pl3     1 ATP        -0.8664
     29 C2         -3.4770    0.2901   -1.1271 C.ar      1 ATP         0.5952
     30 N3         -2.5289    0.1525   -0.2402 N.2       1 ATP        -0.5599
     31 C4         -2.5564   -1.1096    0.2655 C.ar      1 ATP         0.0076
     32 HOG3        2.3065    7.1976    0.7905 H         1 ATP         0.4101
     33 H5'1       -1.1767    2.0502    0.6368 H         1 ATP         0.0364
     34 H5'2       -0.2080    3.2814    1.4876 H         1 ATP         0.0364
     35 H4'         0.0403    1.7078    3.4343 H         1 ATP         0.0945
     36 H3'         1.5907    1.4859    1.1353 H         1 ATP         0.0703
     37 HO3'        2.1521    0.9800    3.3017 H         1 ATP         0.4099
     38 H2'        -0.0017    0.0018    0.0005 H         1 ATP         0.0676
     39 HO2'        0.9369   -2.0558    0.0825 H         1 ATP         0.4291
     40 H1'        -0.1998   -1.6319    2.6178 H         1 ATP         0.0950
     41 H8         -1.5740   -3.5449    2.1457 H         1 ATP         0.1135
     42 HN62       -5.9117   -2.6433   -2.0256 H         1 ATP         0.3588
     43 H2         -3.6225    1.2454   -1.6553 H         1 ATP         0.0302
     44 H44        -5.0794   -0.4231   -2.2258 H         1 ATP         0.4215
@<TRIPOS>BOND
     1    1    2 2
     2    1    3 1
     3    1    4 1
     4    1    8 1
     5    4   32 1
     6    5    6 2
     7    5    7 1
     8    5    8 1
     9    5   12 1
    10    9   10 2
    11    9   11 1
    12    9   12 1
    13    9   13 1
    14   13   14 1
    15   14   15 1
    16   14   33 1
    17   14   34 1
    18   15   16 1
    19   15   17 1
    20   15   35 1
    21   16   21 1
    22   17   18 1
    23   17   19 1
    24   17   36 1
    25   18   37 1
    26   19   20 1
    27   19   21 1
    28   19   38 1
    29   20   39 1
    30   21   22 1
    31   21   40 1
    32   22   23 ar
    33   22   31 ar
    34   23   24 ar
    35   23   41 1
    36   24   25 ar
    37   25   26 ar
    38   25   31 ar
    39   26   27 2
    40   26   28 ar
    41   27   42 1
    42   28   29 ar
    43   28   44 1
    44   29   30 ar
    45   29   43 1
    46   30   31 ar
@<TRIPOS>SUBSTRUCTURE
     1 ATP         1 GROUP 0 A     ****
@<TRIPOS>MOLECULE
[[[3,4-dihydroxy-5-(6-imino-1~{H}-purin-9-yl)tetrahydrofuran-2-yl]methoxy-oxido-phosphoryl]oxy-oxido-phosphoryl] hydrogen phosphate
   44    46     1     0     0
SMALL
USER_CHARGES

@<TRIPOS>ATOM
      1 PG          0.8259    8.0584    5.5367 P.3       1 ATP         1.5257
      2 O1G         1.3432    7.6395    6.8948 O.co2     1 ATP        -0.8737
      3 O2G        -0.3071    9.0522    5.4092 O.co2     1 ATP        -0.8737
      4 O3G         2.0850    8.5902    4.6435 O.3       1 ATP        -0.7971
      5 PB         -0.7129    5.6110    4.9154 P.3       1 ATP         1.6824
      6 O1B        -0.4054    4.8521    6.1871 O.co2     1 ATP        -0.8925
      7 O2B        -2.0580    6.2685    4.7013 O.co2     1 ATP        -0.8925
      8 O3B         0.4578    6.7230    4.6735 O.3       1 ATP        -0.8047
      9 PA         -0.3962    4.9846    2.0409 P.3       1 ATP         1.5908
     10 O1A         0.7136    5.9719    1.7515 O.co2     1 ATP        -0.8932
     11 O2A        -1.8200    5.2757    1.6193 O.co2     1 ATP        -0.8932
     12 O3A        -0.3932    4.6446    3.6391 O.3       1 ATP        -0.8088
     13 O5'         0.0178    3.5131    1.4595 O.3       1 ATP        -0.5646
     14 C5'        -0.8811    2.4285    1.6206 C.3       1 ATP         0.2204
     15 C4'        -0.1994    1.3333    2.4288 C.3       1 ATP         0.0965
     16 O4'        -1.1285    0.2356    2.5840 O.3       1 ATP        -0.3907
     17 C3'         1.0324    0.7610    1.7344 C.3       1 ATP         0.0763
     18 O3'         1.9175    0.2377    2.7247 O.3       1 ATP        -0.5884
     19 C2'         0.4468   -0.3802    0.9263 C.3       1 ATP         0.0784
     20 O2'         1.3993   -1.3703    0.5961 O.3       1 ATP        -0.6085
     21 C1'        -0.6159   -0.9100    1.8769 C.3       1 ATP         0.2186
     22 N9         -1.7127   -1.6108    1.2130 N.pl3     1 ATP        -0.1699
     23 C8         -1.7690   -2.9583    0.9549 C.ar      1 ATP         0.4438
     24 N7         -2.8827   -3.3076    0.3418 N.2       1 ATP        -0.6280
     25 C5         -3.5683   -2.1351    0.2017 C.ar      1 ATP         0.2109
     26 C6         -4.8617   -1.9185   -0.4044 C.ar      1 ATP         0.6180
     27 N6         -5.5166   -2.9094   -0.8993 N.2       1 ATP        -0.8319
     28 N1         -5.1837   -0.5701   -0.3344 N.pl3     1 ATP        -0.8664
     29 C2         -4.3821    0.4180    0.2330 C.ar      1 ATP         0.5952
     30 N3         -3.2117    0.2488    0.7860 N.2       1 ATP        -0.5599
     31 C4         -2.8672   -1.0657    0.7327 C.ar      1 ATP         0.0076
     32 HOG3        1.9110    8.9001    3.7292 H         1 ATP         0.4101
     33 H5'1       -1.7771    2.7849    2.1387 H         1 ATP         0.0364
     34 H5'2       -1.1654    2.0541    0.6320 H         1 ATP         0.0364
     35 H4'         0.0403    1.7078    3.4343 H         1 ATP         0.0945
     36 H3'         1.5907    1.4859    1.1353 H         1 ATP         0.0703
     37 HO3'        2.6839   -0.1150    2.2479 H         1 ATP         0.4099
     38 H2'        -0.0017    0.0018    0.0005 H         1 ATP         0.0676
     39 HO2'        2.0953   -0.9375    0.0709 H         1 ATP         0.4291
     40 H1'        -0.1998   -1.6319    2.6178 H         1 ATP         0.0950
     41 H8         -0.9697   -3.6300    1.2371 H         1 ATP         0.1135
     42 HN62       -6.4060   -2.5723   -1.2840 H         1 ATP         0.3588
     43 H2         -4.8409    1.4176    0.1757 H         1 ATP         0.0302
     44 H44        -6.0768   -0.2826   -0.7263 H         1 ATP         0.4215
@<TRIPOS>BOND
     1    1    2 2
     2    1    3 1
     3    1    4 1
     4    1    8 1
     5    4   32 1
     6    5    6 2
     7    5    7 1
     8    5    8 1
     9    5   12 1
    10    9   10 2
    11    9   11 1
    12    9   12 1
    13    9   13 1
    14   13   14 1
    15   14   15 1
    16   14   33 1
    17   14   34 1
    18   15   16 1
    19   15   17 1
    20   15   35 1
    21   16   21 1
    22   17   18 1
    23   17   19 1
    24   17   36 1
    25   18   37 1
    26   19   20 1
    27   19   21 1
    28   19   38 1
    29   20   39 1
    30   21   22 1
    31   21   40 1
    32   22   23 ar
    33   22   31 ar
    34   23   24 ar
    35   23   41 1
    36   24   25 ar
    37   25   26 ar
    38   25   31 ar
    39   26   27 2
    40   26   28 ar
    41   27   42 1
    42   28   29 ar
    43   28   44 1
    44   29   30 ar
    45   29   43 1
    46   30   31 ar
@<TRIPOS>SUBSTRUCTURE
     1 ATP         1 GROUP 0 A     ****
@<TRIPOS>MOLECULE
[[[3,4-dihydroxy-5-(6-imino-1~{H}-purin-9-yl)tetrahydrofuran-2-yl]methoxy-oxido-phosphoryl]oxy-oxido-phosphoryl] hydrogen phosphate
   44    46     1     0     0
SMALL
USER_CHARGES

@<TRIPOS>ATOM
      1 PG          8.4090    5.1626   -3.2335 P.3       1 ATP         1.5257
      2 O1G         7.9008    6.5731   -3.4326 O.co2     1 ATP        -0.8737
      3 O2G         9.2341    4.4760   -4.2991 O.co2     1 ATP        -0.8737
      4 O3G         9.2291    5.1010   -1.8229 O.3       1 ATP        -0.7971
      5 PB          5.8619    3.7408   -3.7175 P.3       1 ATP         1.6824
      6 O1B         5.0004    4.9558   -3.9806 O.co2     1 ATP        -0.8925
      7 O2B         6.3370    2.8575   -4.8496 O.co2     1 ATP        -0.8925
      8 O3B         7.1552    4.1979   -2.8320 O.3       1 ATP        -0.8047
      9 PA          5.6603    1.4687   -1.8328 P.3       1 ATP         1.5908
     10 O1A         6.8284    1.8494   -0.9491 O.co2     1 ATP        -0.8932
     11 O2A         5.7909    0.3574   -2.8515 O.co2     1 ATP        -0.8932
     12 O3A         5.1235    2.8079   -2.5998 O.3       1 ATP        -0.8088
     13 O5'         4.3516    1.1575   -0.9026 O.3       1 ATP        -0.5646
     14 C5'         4.0922    1.9801    0.2227 C.3       1 ATP         0.2204
     15 C4'         2.5944    2.0310    0.4653 C.3       1 ATP         0.0965
     16 O4'         1.9327    2.5740   -0.6889 O.3       1 ATP        -0.3907
     17 C3'         1.9685    0.6634    0.6767 C.3       1 ATP         0.0763
     18 O3'         2.1425    0.1975    1.9977 O.3       1 ATP        -0.5884
     19 C2'         0.5176    0.9128    0.3099 C.3       1 ATP         0.0784
     20 O2'        -0.2103    1.4454    1.4152 O.3       1 ATP        -0.6085
     21 C1'         0.6219    1.9765   -0.7844 C.3       1 ATP         0.2186
     22 N9          0.4237    1.4496   -2.1357 N.pl3     1 ATP        -0.1699
     23 C8          1.4069    0.9710   -2.9662 C.ar      1 ATP         0.4438
     24 N7          0.9316    0.5623   -4.1260 N.2       1 ATP        -0.6280
     25 C5         -0.4120    0.7884   -4.0344 C.ar      1 ATP         0.2109
     26 C6         -1.4353    0.5283   -5.0204 C.ar      1 ATP         0.6180
     27 N6         -1.1199    0.0176   -6.1586 N.2       1 ATP        -0.8319
     28 N1         -2.6704    0.9095   -4.5147 N.pl3     1 ATP        -0.8664
     29 C2         -2.8863    1.4571   -3.2520 C.ar      1 ATP         0.5952
     30 N3         -1.9805    1.7017   -2.3442 N.2       1 ATP        -0.5599
     31 C4         -0.7561    1.3381   -2.8112 C.ar      1 ATP         0.0076
     32 HOG3        9.6241    4.2458   -1.5495 H         1 ATP         0.4101
     33 H5'1        4.6069    1.5618    1.0936 H         1 ATP         0.0364
     34 H5'2        4.4824    2.9837    0.0254 H         1 ATP         0.0364
     35 H4'         2.3752    2.7029    1.3156 H         1 ATP         0.0945
     36 H3'         2.4336   -0.1217   -0.0015 H         1 ATP         0.0703
     37 HO3'        1.7160   -0.6716    2.0397 H         1 ATP         0.4099
     38 H2'         0.0316    0.0155   -0.0339 H         1 ATP         0.0676
     39 HO2'       -0.1608    0.7921    2.1351 H         1 ATP         0.4291
     40 H1'        -0.1474    2.7798   -0.6651 H         1 ATP         0.0950
     41 H8          2.4466    0.9468   -2.6694 H         1 ATP         0.1135
     42 HN62       -1.9661   -0.0965   -6.7275 H         1 ATP         0.3588
     43 H2         -3.9481    1.6825   -3.0660 H         1 ATP         0.0302
     44 H44        -3.4814    0.7753   -5.1133 H         1 ATP         0.4215
@<TRIPOS>BOND
     1    1    2 2
     2    1    3 1
     3    1    4 1
     4    1    8 1
     5    4   32 1
     6    5    6 2
     7    5    7 1
     8    5    8 1
     9    5   12 1
    10    9   10 2
    11    9   11 1
    12    9   12 1
    13    9   13 1
    14   13   14 1
    15   14   15 1
    16   14   33 1
    17   14   34 1
    18   15   16 1
    19   15   17 1
    20   15   35 1
    21   16   21 1
    22   17   18 1
    23   17   19 1
    24   17   36 1
    25   18   37 1
    26   19   20 1
    27   19   21 1
    28   19   38 1
    29   20   39 1
    30   21   22 1
    31   21   40 1
    32   22   23 ar
    33   22   31 ar
    34   23   24 ar
    35   23   41 1
    36   24   25 ar
    37   25   26 ar
    38   25   31 ar
    39   26   27 2
    40   26   28 ar
    41   27   42 1
    42   28   29 ar
    43   28   44 1
    44   29   30 ar
    45   29   43 1
    46   30   31 ar
@<TRIPOS>SUBSTRUCTURE
     1 ATP         1 GROUP 0 A     ****
@<TRIPOS>MOLECULE
[[[3,4-dihydroxy-5-(6-imino-1~{H}-purin-9-yl)tetrahydrofuran-2-yl]methoxy-oxido-phosphoryl]oxy-oxido-phosphoryl] hydrogen phosphate
   44    46     1     0     0
SMALL
USER_CHARGES

@<TRIPOS>ATOM
      1 PG         -4.6330    8.4167    1.7149 P.3       1 ATP         1.5257
      2 O1G        -5.7913    8.2350    2.6703 O.co2     1 ATP        -0.8737
      3 O2G        -4.8569    8.9336    0.3112 O.co2     1 ATP        -0.8737
      4 O3G        -3.5061    9.3513    2.4378 O.3       1 ATP        -0.7971
      5 PB         -2.3698    6.7018    0.8897 P.3       1 ATP         1.6824
      6 O1B        -2.5769    6.8015   -0.6051 O.co2     1 ATP        -0.8925
      7 O2B        -1.2694    7.4752    1.5814 O.co2     1 ATP        -0.8925
      8 O3B        -3.7853    7.0242    1.6368 O.3       1 ATP        -0.8047
      9 PA         -2.1561    4.4278    2.7707 P.3       1 ATP         1.5908
     10 O1A        -3.4710    4.6479    3.4867 O.co2     1 ATP        -0.8932
     11 O2A        -0.8475    4.8296    3.4155 O.co2     1 ATP        -0.8932
     12 O3A        -2.2377    5.1262    1.2959 O.3       1 ATP        -0.8088
     13 O5'        -2.0401    2.8620    2.3128 O.3       1 ATP        -0.5646
     14 C5'        -0.8811    2.4285    1.6206 C.3       1 ATP         0.2204
     15 C4'        -0.1994    1.3333    2.4288 C.3       1 ATP         0.0965
     16 O4'        -1.1285    0.2356    2.5840 O.3       1 ATP        -0.3907
     17 C3'         1.0324    0.7610    1.7344 C.3       1 ATP         0.0763
     18 O3'         1.9175    0.2377    2.7247 O.3       1 ATP        -0.5884
     19 C2'         0.4468   -0.3802    0.9263 C.3       1 ATP         0.0784
     20 O2'         1.3993   -1.3703    0.5961 O.3       1 ATP        -0.6085
     21 C1'        -0.6159   -0.9100    1.8769 C.3       1 ATP         0.2186
     22 N9         -1.7127   -1.6108    1.2130 N.pl3     1 ATP        -0.1699
     23 C8         -2.5485   -1.0808    0.2609 C.ar      1 ATP         0.4438
     24 N7         -3.4476   -1.9486   -0.1593 N.2       1 ATP        -0.6280
     25 C5         -3.1762   -3.0816    0.5530 C.ar      1 ATP         0.2109
     26 C6         -3.8510   -4.3579    0.5006 C.ar      1 ATP         0.6180
     27 N6         -4.8468   -4.5293   -0.2961 N.2       1 ATP        -0.8319
     28 N1         -3.2499   -5.2342    1.3937 N.pl3     1 ATP        -0.8664
     29 C2         -2.1646   -4.9275    2.2116 C.ar      1 ATP         0.5952
     30 N3         -1.5382   -3.7840    2.2778 N.2       1 ATP        -0.5599
     31 C4         -2.1054   -2.9018    1.4120 C.ar      1 ATP         0.0076
     32 HOG3       -2.6865    9.5624    1.9419 H         1 ATP         0.4101
     33 H5'1       -1.1767    2.0502    0.6368 H         1 ATP         0.0364
     34 H5'2       -0.2080    3.2814    1.4876 H         1 ATP         0.0364
     35 H4'         0.0403    1.7078    3.4343 H         1 ATP         0.0945
     36 H3'         1.5907    1.4859    1.1353 H         1 ATP         0.0703
     37 HO3'        2.1521    0.9800    3.3017 H         1 ATP         0.4099
     38 H2'        -0.0017    0.0018    0.0005 H         1 ATP         0.0676
     39 HO2'        2.0953   -0.9375    0.0709 H         1 ATP         0.4291
     40 H1'        -0.1998   -1.6319    2.6178 H         1 ATP         0.0950
     41 H8         -2.4515   -0.0599   -0.0829 H         1 ATP         0.1135
     42 HN62       -5.1990   -5.4882   -0.2005 H         1 ATP         0.3588
     43 H2         -1.8555   -5.7783    2.8388 H         1 ATP         0.0302
     44 H44        -3.6312   -6.1750    1.4526 H         1 ATP         0.4215
@<TRIPOS>BOND
     1    1    2 2
     2    1    3 1
     3    1    4 1
     4    1    8 1
     5    4   32 1
     6    5    6 2
     7    5    7 1
     8    5    8 1
     9    5   12 1
    10    9   10 2
    11    9   11 1
    12    9   12 1
    13    9   13 1
    14   13   14 1
    15   14   15 1
    16   14   33 1
    17   14   34 1
    18   15   16 1
    19   15   17 1
    20   15   35 1
    21   16   21 1
    22   17   18 1
    23   17   19 1
    24   17   36 1
    25   18   37 1
    26   19   20 1
    27   19   21 1
    28   19   38 1
    29   20   39 1
    30   21   22 1
    31   21   40 1
    32   22   23 ar
    33   22   31 ar
    34   23   24 ar
    35   23   41 1
    36   24   25 ar
    37   25   26 ar
    38   25   31 ar
    39   26   27 2
    40   26   28 ar
    41   27   42 1
    42   28   29 ar
    43   28   44 1
    44   29   30 ar
    45   29   43 1
    46   30   31 ar
@<TRIPOS>SUBSTRUCTURE
     1 ATP         1 GROUP 0 A     ****
@<TRIPOS>MOLECULE
[[[3,4-dihydroxy-5-(6-imino-1~{H}-purin-9-yl)tetrahydrofuran-2-yl]methoxy-oxido-phosphoryl]oxy-oxido-phosphoryl] hydrogen phosphate
   44    46     1     0     0
SMALL
USER_CHARGES

@<TRIPOS>ATOM
      1 PG         -6.6413   -0.2666    0.2107 P.3       1 ATP         1.5257
      2 O1G        -6.2923   -1.6959    0.5610 O.co2     1 ATP        -0.8737
      3 O2G        -6.9877    0.1233   -1.2091 O.co2     1 ATP        -0.8737
      4 O3G        -7.8476    0.2286    1.1933 O.3       1 ATP        -0.7971
      5 PB         -5.3881    2.3486    0.7885 P.3       1 ATP         1.6824
      6 O1B        -5.3246    2.8596   -0.6336 O.co2     1 ATP        -0.8925
      7 O2B        -6.4294    2.8601    1.7589 O.co2     1 ATP        -0.8925
      8 O3B        -5.4592    0.7178    0.7560 O.3       1 ATP        -0.8047
      9 PA         -3.0798    3.8627    1.8536 P.3       1 ATP         1.5908
     10 O1A        -3.8220    4.5968    2.9492 O.co2     1 ATP        -0.8932
     11 O2A        -2.6995    4.5681    0.5701 O.co2     1 ATP        -0.8932
     12 O3A        -3.9133    2.5109    1.4692 O.3       1 ATP        -0.8088
     13 O5'        -1.7336    3.1724    2.4750 O.3       1 ATP        -0.5646
     14 C5'        -0.8811    2.4285    1.6206 C.3       1 ATP         0.2204
     15 C4'        -0.1994    1.3333    2.4288 C.3       1 ATP         0.0965
     16 O4'        -1.1285    0.2356    2.5840 O.3       1 ATP        -0.3907
     17 C3'         1.0324    0.7610    1.7344 C.3       1 ATP         0.0763
     18 O3'         1.9175    0.2377    2.7247 O.3       1 ATP        -0.5884
     19 C2'         0.4468   -0.3802    0.9263 C.3       1 ATP         0.0784
     20 O2'         1.3993   -1.3703    0.5961 O.3       1 ATP        -0.6085
     21 C1'        -0.6159   -0.9100    1.8769 C.3       1 ATP         0.2186
     22 N9         -1.7127   -1.6108    1.2130 N.pl3     1 ATP        -0.1699
     23 C8         -2.8662   -1.0361    0.7388 C.ar      1 ATP         0.4438
     24 N7         -3.6774   -1.9166    0.1867 N.2       1 ATP        -0.6280
     25 C5         -3.0159   -3.1045    0.3122 C.ar      1 ATP         0.2109
     26 C6         -3.4377   -4.4169   -0.1199 C.ar      1 ATP         0.6180
     27 N6         -4.5720   -4.5691   -0.7080 N.2       1 ATP        -0.8319
     28 N1         -2.4600   -5.3463    0.2071 N.pl3     1 ATP        -0.8664
     29 C2         -1.2595   -5.0554    0.8515 C.ar      1 ATP         0.5952
     30 N3         -0.8555   -3.8803    1.2516 N.2       1 ATP        -0.5599
     31 C4         -1.7946   -2.9457    0.9448 C.ar      1 ATP         0.0076
     32 HOG3       -8.1889    1.1424    1.0895 H         1 ATP         0.4101
     33 H5'1       -1.4800    1.9927    0.8146 H         1 ATP         0.0364
     34 H5'2       -0.1367    3.1040    1.1872 H         1 ATP         0.0364
     35 H4'         0.0403    1.7078    3.4343 H         1 ATP         0.0945
     36 H3'         1.5907    1.4859    1.1353 H         1 ATP         0.0703
     37 HO3'        2.1521    0.9800    3.3017 H         1 ATP         0.4099
     38 H2'        -0.0017    0.0018    0.0005 H         1 ATP         0.0676
     39 HO2'        1.7495   -1.7243    1.4324 H         1 ATP         0.4291
     40 H1'        -0.1998   -1.6319    2.6178 H         1 ATP         0.0950
     41 H8         -3.0558    0.0252    0.8256 H         1 ATP         0.1135
     42 HN62       -4.7047   -5.5592   -0.9421 H         1 ATP         0.3588
     43 H2         -0.6372   -5.9505    1.0077 H         1 ATP         0.0302
     44 H44        -2.6338   -6.3155   -0.0469 H         1 ATP         0.4215
@<TRIPOS>BOND
     1    1    2 2
     2    1    3 1
     3    1    4 1
     4    1    8 1
     5    4   32 1
     6    5    6 2
     7    5    7 1
     8    5    8 1
     9    5   12 1
    10    9   10 2
    11    9   11 1
    12    9   12 1
    13    9   13 1
    14   13   14 1
    15   14   15 1
    16   14   33 1
    17   14   34 1
    18   15   16 1
    19   15   17 1
    20   15   35 1
    21   16   21 1
    22   17   18 1
    23   17   19 1
    24   17   36 1
    25   18   37 1
    26   19   20 1
    27   19   21 1
    28   19   38 1
    29   20   39 1
    30   21   22 1
    31   21   40 1
    32   22   23 ar
    33   22   31 ar
    34   23   24 ar
    35   23   41 1
    36   24   25 ar
    37   25   26 ar
    38   25   31 ar
    39   26   27 2
    40   26   28 ar
    41   27   42 1
    42   28   29 ar
    43   28   44 1
    44   29   30 ar
    45   29   43 1
    46   30   31 ar
@<TRIPOS>SUBSTRUCTURE
     1 ATP         1 GROUP 0 A     ****
@<TRIPOS>MOLECULE
[[[3,4-dihydroxy-5-(6-imino-1~{H}-purin-9-yl)tetrahydrofuran-2-yl]methoxy-oxido-phosphoryl]oxy-oxido-phosphoryl] hydrogen phosphate
   44    46     1     0     0
SMALL
USER_CHARGES

@<TRIPOS>ATOM
      1 PG         -6.4682   -0.3726    0.7567 P.3       1 ATP         1.5257
      2 O1G        -6.4865   -0.7858   -0.6981 O.co2     1 ATP        -0.8737
      3 O2G        -7.7272    0.1061    1.4447 O.co2     1 ATP        -0.8737
      4 O3G        -5.8296   -1.5924    1.6343 O.3       1 ATP        -0.7971
      5 PB         -5.1692    2.2616    0.4146 P.3       1 ATP         1.6824
      6 O1B        -5.0051    2.2111   -1.0880 O.co2     1 ATP        -0.8925
      7 O2B        -6.2496    3.1031    1.0568 O.co2     1 ATP        -0.8925
      8 O3B        -5.2900    0.7346    0.9796 O.3       1 ATP        -0.8047
      9 PA         -3.2890    2.7005    2.6567 P.3       1 ATP         1.5908
     10 O1A        -3.3276    1.2949    3.2163 O.co2     1 ATP        -0.8932
     11 O2A        -4.0474    3.8228    3.3313 O.co2     1 ATP        -0.8932
     12 O3A        -3.7331    2.6526    1.0850 O.3       1 ATP        -0.8088
     13 O5'        -1.7336    3.1724    2.4750 O.3       1 ATP        -0.5646
     14 C5'        -0.8811    2.4285    1.6206 C.3       1 ATP         0.2204
     15 C4'        -0.1994    1.3333    2.4288 C.3       1 ATP         0.0965
     16 O4'        -1.1285    0.2356    2.5840 O.3       1 ATP        -0.3907
     17 C3'         1.0324    0.7610    1.7344 C.3       1 ATP         0.0763
     18 O3'         1.9175    0.2377    2.7247 O.3       1 ATP        -0.5884
     19 C2'         0.4468   -0.3802    0.9263 C.3       1 ATP         0.0784
     20 O2'         1.3993   -1.3703    0.5961 O.3       1 ATP        -0.6085
     21 C1'        -0.6159   -0.9100    1.8769 C.3       1 ATP         0.2186
     22 N9         -1.7127   -1.6108    1.2130 N.pl3     1 ATP        -0.1699
     23 C8         -2.5485   -1.0808    0.2609 C.ar      1 ATP         0.4438
     24 N7         -3.4476   -1.9486   -0.1593 N.2       1 ATP        -0.6280
     25 C5         -3.1762   -3.0816    0.5530 C.ar      1 ATP         0.2109
     26 C6         -3.8510   -4.3579    0.5006 C.ar      1 ATP         0.6180
     27 N6         -4.8468   -4.5293   -0.2961 N.2       1 ATP        -0.8319
     28 N1         -3.2499   -5.2342    1.3937 N.pl3     1 ATP        -0.8664
     29 C2         -2.1646   -4.9275    2.2116 C.ar      1 ATP         0.5952
     30 N3         -1.5382   -3.7840    2.2778 N.2       1 ATP        -0.5599
     31 C4         -2.1054   -2.9018    1.4120 C.ar      1 ATP         0.0076
     32 HOG3       -5.7490   -1.4768    2.6051 H         1 ATP         0.4101
     33 H5'1       -1.4800    1.9927    0.8146 H         1 ATP         0.0364
     34 H5'2       -0.1367    3.1040    1.1872 H         1 ATP         0.0364
     35 H4'         0.0403    1.7078    3.4343 H         1 ATP         0.0945
     36 H3'         1.5907    1.4859    1.1353 H         1 ATP         0.0703
     37 HO3'        2.6839   -0.1150    2.2479 H         1 ATP         0.4099
     38 H2'        -0.0017    0.0018    0.0005 H         1 ATP         0.0676
     39 HO2'        0.9369   -2.0558    0.0825 H         1 ATP         0.4291
     40 H1'        -0.1998   -1.6319    2.6178 H         1 ATP         0.0950
     41 H8         -2.4515   -0.0599   -0.0829 H         1 ATP         0.1135
     42 HN62       -5.1990   -5.4882   -0.2005 H         1 ATP         0.3588
     43 H2         -1.8555   -5.7783    2.8388 H         1 ATP         0.0302
     44 H44        -3.6312   -6.1750    1.4526 H         1 ATP         0.4215
@<TRIPOS>BOND
     1    1    2 2
     2    1    3 1
     3    1    4 1
     4    1    8 1
     5    4   32 1
     6    5    6 2
     7    5    7 1
     8    5    8 1
     9    5   12 1
    10    9   10 2
    11    9   11 1
    12    9   12 1
    13    9   13 1
    14   13   14 1
    15   14   15 1
    16   14   33 1
    17   14   34 1
    18   15   16 1
    19   15   17 1
    20   15   35 1
    21   16   21 1
    22   17   18 1
    23   17   19 1
    24   17   36 1
    25   18   37 1
    26   19   20 1
    27   19   21 1
    28   19   38 1
    29   20   39 1
    30   21   22 1
    31   21   40 1
    32   22   23 ar
    33   22   31 ar
    34   23   24 ar
    35   23   41 1
    36   24   25 ar
    37   25   26 ar
    38   25   31 ar
    39   26   27 2
    40   26   28 ar
    41   27   42 1
    42   28   29 ar
    43   28   44 1
    44   29   30 ar
    45   29   43 1
    46   30   31 ar
@<TRIPOS>SUBSTRUCTURE
     1 ATP         1 GROUP 0 A     ****
@<TRIPOS>MOLECULE
[[[3,4-dihydroxy-5-(6-imino-1~{H}-purin-9-yl)tetrahydrofuran-2-yl]methoxy-oxido-phosphoryl]oxy-oxido-phosphoryl] hydrogen phosphate
   44    46     1     0     0
SMALL
USER_CHARGES

@<TRIPOS>ATOM
      1 PG         -1.1780    5.1086   -4.9119 P.3       1 ATP         1.5257
      2 O1G        -2.1877    6.2345   -4.8997 O.co2     1 ATP        -0.8737
      3 O2G        -1.2976    3.9680   -5.8980 O.co2     1 ATP        -0.8737
      4 O3G         0.3163    5.7533   -5.0436 O.3       1 ATP        -0.7971
      5 PB         -0.7462    5.2493   -1.9900 P.3       1 ATP         1.6824
      6 O1B         0.6662    5.7891   -2.0215 O.co2     1 ATP        -0.8925
      7 O2B        -1.9194    6.1437   -1.6566 O.co2     1 ATP        -0.8925
      8 O3B        -1.0495    4.4940   -3.4054 O.3       1 ATP        -0.8047
      9 PA         -1.9976    2.8867   -0.7222 P.3       1 ATP         1.5908
     10 O1A        -2.2806    2.1154   -1.9932 O.co2     1 ATP        -0.8932
     11 O2A        -3.1068    3.6179    0.0021 O.co2     1 ATP        -0.8932
     12 O3A        -0.7864    3.9453   -1.0089 O.3       1 ATP        -0.8088
     13 O5'        -1.2434    1.9104    0.3515 O.3       1 ATP        -0.5646
     14 C5'        -0.8811    2.4285    1.6206 C.3       1 ATP         0.2204
     15 C4'        -0.1994    1.3333    2.4288 C.3       1 ATP         0.0965
     16 O4'        -1.1285    0.2356    2.5840 O.3       1 ATP        -0.3907
     17 C3'         1.0324    0.7610    1.7344 C.3       1 ATP         0.0763
     18 O3'         1.9175    0.2377    2.7247 O.3       1 ATP        -0.5884
     19 C2'         0.4468   -0.3802    0.9263 C.3       1 ATP         0.0784
     20 O2'         1.3993   -1.3703    0.5961 O.3       1 ATP        -0.6085
     21 C1'        -0.6159   -0.9100    1.8769 C.3       1 ATP         0.2186
     22 N9         -1.7127   -1.6108    1.2130 N.pl3     1 ATP        -0.1699
     23 C8         -2.8662   -1.0361    0.7388 C.ar      1 ATP         0.4438
     24 N7         -3.6774   -1.9166    0.1867 N.2       1 ATP        -0.6280
     25 C5         -3.0159   -3.1045    0.3122 C.ar      1 ATP         0.2109
     26 C6         -3.4377   -4.4169   -0.1199 C.ar      1 ATP         0.6180
     27 N6         -4.5720   -4.5691   -0.7080 N.2       1 ATP        -0.8319
     28 N1         -2.4600   -5.3463    0.2071 N.pl3     1 ATP        -0.8664
     29 C2         -1.2595   -5.0554    0.8515 C.ar      1 ATP         0.5952
     30 N3         -0.8555   -3.8803    1.2516 N.2       1 ATP        -0.5599
     31 C4         -1.7946   -2.9457    0.9448 C.ar      1 ATP         0.0076
     32 HOG3        1.0865    5.1462   -5.0653 H         1 ATP         0.4101
     33 H5'1       -0.2033    3.2760    1.4769 H         1 ATP         0.0364
     34 H5'2       -1.7841    2.7762    2.1323 H         1 ATP         0.0364
     35 H4'         0.0403    1.7078    3.4343 H         1 ATP         0.0945
     36 H3'         1.5907    1.4859    1.1353 H         1 ATP         0.0703
     37 HO3'        2.6839   -0.1150    2.2479 H         1 ATP         0.4099
     38 H2'        -0.0017    0.0018    0.0005 H         1 ATP         0.0676
     39 HO2'        2.0953   -0.9375    0.0709 H         1 ATP         0.4291
     40 H1'        -0.1998   -1.6319    2.6178 H         1 ATP         0.0950
     41 H8         -3.0558    0.0252    0.8256 H         1 ATP         0.1135
     42 HN62       -4.7047   -5.5592   -0.9421 H         1 ATP         0.3588
     43 H2         -0.6372   -5.9505    1.0077 H         1 ATP         0.0302
     44 H44        -2.6338   -6.3155   -0.0469 H         1 ATP         0.4215
@<TRIPOS>BOND
     1    1    2 2
     2    1    3 1
     3    1    4 1
     4    1    8 1
     5    4   32 1
     6    5    6 2
     7    5    7 1
     8    5    8 1
     9    5   12 1
    10    9   10 2
    11    9   11 1
    12    9   12 1
    13    9   13 1
    14   13   14 1
    15   14   15 1
    16   14   33 1
    17   14   34 1
    18   15   16 1
    19   15   17 1
    20   15   35 1
    21   16   21 1
    22   17   18 1
    23   17   19 1
    24   17   36 1
    25   18   37 1
    26   19   20 1
    27   19   21 1
    28   19   38 1
    29   20   39 1
    30   21   22 1
    31   21   40 1
    32   22   23 ar
    33   22   31 ar
    34   23   24 ar
    35   23   41 1
    36   24   25 ar
    37   25   26 ar
    38   25   31 ar
    39   26   27 2
    40   26   28 ar
    41   27   42 1
    42   28   29 ar
    43   28   44 1
    44   29   30 ar
    45   29   43 1
    46   30   31 ar
@<TRIPOS>SUBSTRUCTURE
     1 ATP         1 GROUP 0 A     ****
@<TRIPOS>MOLECULE
[[[3,4-dihydroxy-5-(6-imino-1~{H}-purin-9-yl)tetrahydrofuran-2-yl]methoxy-oxido-phosphoryl]oxy-oxido-phosphoryl] hydrogen phosphate
   44    46     1     0     0
SMALL
USER_CHARGES

@<TRIPOS>ATOM
      1 PG         -7.1617    2.6730   -0.5169 P.3       1 ATP         1.5257
      2 O1G        -7.5943    2.1150   -1.8544 O.co2     1 ATP        -0.8737
      3 O2G        -7.6322    4.0339   -0.0536 O.co2     1 ATP        -0.8737
      4 O3G        -7.5187    1.5791    0.6415 O.3       1 ATP        -0.7971
      5 PB         -4.4042    3.4333   -1.2663 P.3       1 ATP         1.6824
      6 O1B        -4.4547    2.9771   -2.7074 O.co2     1 ATP        -0.8925
      7 O2B        -4.4950    4.8992   -0.9050 O.co2     1 ATP        -0.8925
      8 O3B        -5.5337    2.6143   -0.4182 O.3       1 ATP        -0.8047
      9 PA         -1.4929    3.1051   -0.8519 P.3       1 ATP         1.5908
     10 O1A        -1.1930    4.5362   -0.4619 O.co2     1 ATP        -0.8932
     11 O2A        -1.1549    2.5933   -2.2352 O.co2     1 ATP        -0.8932
     12 O3A        -3.0726    2.8023   -0.5640 O.3       1 ATP        -0.8088
     13 O5'        -0.8277    2.0903    0.2447 O.3       1 ATP        -0.5646
     14 C5'        -0.8811    2.4285    1.6206 C.3       1 ATP         0.2204
     15 C4'        -0.1994    1.3333    2.4288 C.3       1 ATP         0.0965
     16 O4'        -1.1285    0.2356    2.5840 O.3       1 ATP        -0.3907
     17 C3'         1.0324    0.7610    1.7344 C.3       1 ATP         0.0763
     18 O3'         1.9175    0.2377    2.7247 O.3       1 ATP        -0.5884
     19 C2'         0.4468   -0.3802    0.9263 C.3       1 ATP         0.0784
     20 O2'         1.3993   -1.3703    0.5961 O.3       1 ATP        -0.6085
     21 C1'        -0.6159   -0.9100    1.8769 C.3       1 ATP         0.2186
     22 N9         -1.7127   -1.6108    1.2130 N.pl3     1 ATP        -0.1699
     23 C8         -2.8662   -1.0361    0.7388 C.ar      1 ATP         0.4438
     24 N7         -3.6774   -1.9166    0.1867 N.2       1 ATP        -0.6280
     25 C5         -3.0159   -3.1045    0.3122 C.ar      1 ATP         0.2109
     26 C6         -3.4377   -4.4169   -0.1199 C.ar      1 ATP         0.6180
     27 N6         -4.5720   -4.5691   -0.7080 N.2       1 ATP        -0.8319
     28 N1         -2.4600   -5.3463    0.2071 N.pl3     1 ATP        -0.8664
     29 C2         -1.2595   -5.0554    0.8515 C.ar      1 ATP         0.5952
     30 N3         -0.8555   -3.8803    1.2516 N.2       1 ATP        -0.5599
     31 C4         -1.7946   -2.9457    0.9448 C.ar      1 ATP         0.0076
     32 HOG3       -7.2973    1.7956    1.5723 H         1 ATP         0.4101
     33 H5'1       -0.3731    3.3866    1.7699 H         1 ATP         0.0364
     34 H5'2       -1.9291    2.5295    1.9203 H         1 ATP         0.0364
     35 H4'         0.0403    1.7078    3.4343 H         1 ATP         0.0945
     36 H3'         1.5907    1.4859    1.1353 H         1 ATP         0.0703
     37 HO3'        2.6839   -0.1150    2.2479 H         1 ATP         0.4099
     38 H2'        -0.0017    0.0018    0.0005 H         1 ATP         0.0676
     39 HO2'        2.0953   -0.9375    0.0709 H         1 ATP         0.4291
     40 H1'        -0.1998   -1.6319    2.6178 H         1 ATP         0.0950
     41 H8         -3.0558    0.0252    0.8256 H         1 ATP         0.1135
     42 HN62       -4.7047   -5.5592   -0.9421 H         1 ATP         0.3588
     43 H2         -0.6372   -5.9505    1.0077 H         1 ATP         0.0302
     44 H44        -2.6338   -6.3155   -0.0469 H         1 ATP         0.4215
@<TRIPOS>BOND
     1    1    2 2
     2    1    3 1
     3    1    4 1
     4    1    8 1
     5    4   32 1
     6    5    6 2
     7    5    7 1
     8    5    8 1
     9    5   12 1
    10    9   10 2
    11    9   11 1
    12    9   12 1
    13    9   13 1
    14   13   14 1
    15   14   15 1
    16   14   33 1
    17   14   34 1
    18   15   16 1
    19   15   17 1
    20   15   35 1
    21   16   21 1
    22   17   18 1
    23   17   19 1
    24   17   36 1
    25   18   37 1
    26   19   20 1
    27   19   21 1
    28   19   38 1
    29   20   39 1
    30   21   22 1
    31   21   40 1
    32   22   23 ar
    33   22   31 ar
    34   23   24 ar
    35   23   41 1
    36   24   25 ar
    37   25   26 ar
    38   25   31 ar
    39   26   27 2
    40   26   28 ar
    41   27   42 1
    42   28   29 ar
    43   28   44 1
    44   29   30 ar
    45   29   43 1
    46   30   31 ar
@<TRIPOS>SUBSTRUCTURE
     1 ATP         1 GROUP 0 A     ****
@<TRIPOS>MOLECULE
[[[3,4-dihydroxy-5-(6-imino-1~{H}-purin-9-yl)tetrahydrofuran-2-yl]methoxy-oxido-phosphoryl]oxy-oxido-phosphoryl] hydrogen phosphate
   44    46     1     0     0
SMALL
USER_CHARGES

@<TRIPOS>ATOM
      1 PG         -2.9201    9.1799    2.0742 P.3       1 ATP         1.5257
      2 O1G        -3.5296    9.5647    0.7446 O.co2     1 ATP        -0.8737
      3 O2G        -1.7907    9.9873    2.6744 O.co2     1 ATP        -0.8737
      4 O3G        -4.1169    9.0619    3.1787 O.3       1 ATP        -0.7971
      5 PB         -3.3505    6.2904    1.6171 P.3       1 ATP         1.6824
      6 O1B        -4.4223    6.0789    2.6630 O.co2     1 ATP        -0.8925
      7 O2B        -3.6955    6.3690    0.1466 O.co2     1 ATP        -0.8925
      8 O3B        -2.4778    7.6097    2.0212 O.3       1 ATP        -0.8047
      9 PA         -0.7385    5.0053    1.0867 P.3       1 ATP         1.5908
     10 O1A         0.1343    6.1787    1.4762 O.co2     1 ATP        -0.8932
     11 O2A        -0.9779    4.6690   -0.3691 O.co2     1 ATP        -0.8932
     12 O3A        -2.1887    5.1621    1.8228 O.3       1 ATP        -0.8088
     13 O5'        -0.2062    3.6557    1.8417 O.3       1 ATP        -0.5646
     14 C5'        -0.8811    2.4285    1.6206 C.3       1 ATP         0.2204
     15 C4'        -0.1994    1.3333    2.4288 C.3       1 ATP         0.0965
     16 O4'        -1.1285    0.2356    2.5840 O.3       1 ATP        -0.3907
     17 C3'         1.0324    0.7610    1.7344 C.3       1 ATP         0.0763
     18 O3'         1.9175    0.2377    2.7247 O.3       1 ATP        -0.5884
     19 C2'         0.4468   -0.3802    0.9263 C.3       1 ATP         0.0784
     20 O2'         1.3993   -1.3703    0.5961 O.3       1 ATP        -0.6085
     21 C1'        -0.6159   -0.9100    1.8769 C.3       1 ATP         0.2186
     22 N9         -1.7127   -1.6108    1.2130 N.pl3     1 ATP        -0.1699
     23 C8         -1.7690   -2.9583    0.9549 C.ar      1 ATP         0.4438
     24 N7         -2.8827   -3.3076    0.3418 N.2       1 ATP        -0.6280
     25 C5         -3.5683   -2.1351    0.2017 C.ar      1 ATP         0.2109
     26 C6         -4.8617   -1.9185   -0.4044 C.ar      1 ATP         0.6180
     27 N6         -5.5166   -2.9094   -0.8993 N.2       1 ATP        -0.8319
     28 N1         -5.1837   -0.5701   -0.3344 N.pl3     1 ATP        -0.8664
     29 C2         -4.3821    0.4180    0.2330 C.ar      1 ATP         0.5952
     30 N3         -3.2117    0.2488    0.7860 N.2       1 ATP        -0.5599
     31 C4         -2.8672   -1.0657    0.7327 C.ar      1 ATP         0.0076
     32 HOG3       -3.8806    8.8175    4.0988 H         1 ATP         0.4101
     33 H5'1       -1.9256    2.5380    1.9293 H         1 ATP         0.0364
     34 H5'2       -0.8474    2.1930    0.5521 H         1 ATP         0.0364
     35 H4'         0.0403    1.7078    3.4343 H         1 ATP         0.0945
     36 H3'         1.5907    1.4859    1.1353 H         1 ATP         0.0703
     37 HO3'        2.6839   -0.1150    2.2479 H         1 ATP         0.4099
     38 H2'        -0.0017    0.0018    0.0005 H         1 ATP         0.0676
     39 HO2'        2.0953   -0.9375    0.0709 H         1 ATP         0.4291
     40 H1'        -0.1998   -1.6319    2.6178 H         1 ATP         0.0950
     41 H8         -0.9697   -3.6300    1.2371 H         1 ATP         0.1135
     42 HN62       -6.4060   -2.5723   -1.2840 H         1 ATP         0.3588
     43 H2         -4.8409    1.4176    0.1757 H         1 ATP         0.0302
     44 H44        -6.0768   -0.2826   -0.7263 H         1 ATP         0.4215
@<TRIPOS>BOND
     1    1    2 2
     2    1    3 1
     3    1    4 1
     4    1    8 1
     5    4   32 1
     6    5    6 2
     7    5    7 1
     8    5    8 1
     9    5   12 1
    10    9   10 2
    11    9   11 1
    12    9   12 1
    13    9   13 1
    14   13   14 1
    15   14   15 1
    16   14   33 1
    17   14   34 1
    18   15   16 1
    19   15   17 1
    20   15   35 1
    21   16   21 1
    22   17   18 1
    23   17   19 1
    24   17   36 1
    25   18   37 1
    26   19   20 1
    27   19   21 1
    28   19   38 1
    29   20   39 1
    30   21   22 1
    31   21   40 1
    32   22   23 ar
    33   22   31 ar
    34   23   24 ar
    35   23   41 1
    36   24   25 ar
    37   25   26 ar
    38   25   31 ar
    39   26   27 2
    40   26   28 ar
    41   27   42 1
    42   28   29 ar
    43   28   44 1
    44   29   30 ar
    45   29   43 1
    46   30   31 ar
@<TRIPOS>SUBSTRUCTURE
     1 ATP         1 GROUP 0 A     ****
@<TRIPOS>MOLECULE
[[[3,4-dihydroxy-5-(6-imino-1~{H}-purin-9-yl)tetrahydrofuran-2-yl]methoxy-oxido-phosphoryl]oxy-oxido-phosphoryl] hydrogen phosphate
   44    46     1     0     0
SMALL
USER_CHARGES

@<TRIPOS>ATOM
      1 PG          8.9607    1.1276    4.6551 P.3       1 ATP         1.5257
      2 O1G         9.6255    2.2804    5.3738 O.co2     1 ATP        -0.8737
      3 O2G         9.7821    0.0078    4.0558 O.co2     1 ATP        -0.8737
      4 O3G         7.8402    0.4748    5.6472 O.3       1 ATP        -0.7971
      5 PB          8.3074    2.5390    2.1403 P.3       1 ATP         1.6824
      6 O1B         8.8794    3.8886    2.5129 O.co2     1 ATP        -0.8925
      7 O2B         9.0384    1.6125    1.1943 O.co2     1 ATP        -0.8925
      8 O3B         7.9605    1.7212    3.5101 O.3       1 ATP        -0.8047
      9 PA          6.2486    3.4952    0.2423 P.3       1 ATP         1.5908
     10 O1A         6.7242    2.7153   -0.9643 O.co2     1 ATP        -0.8932
     11 O2A         6.5372    4.9751    0.3698 O.co2     1 ATP        -0.8932
     12 O3A         6.7835    2.7493    1.5941 O.3       1 ATP        -0.8088
     13 O5'         4.6405    3.2699    0.4378 O.3       1 ATP        -0.5646
     14 C5'         4.0922    1.9801    0.2227 C.3       1 ATP         0.2204
     15 C4'         2.5944    2.0310    0.4653 C.3       1 ATP         0.0965
     16 O4'         1.9327    2.5740   -0.6889 O.3       1 ATP        -0.3907
     17 C3'         1.9685    0.6634    0.6767 C.3       1 ATP         0.0763
     18 O3'         2.1425    0.1975    1.9977 O.3       1 ATP        -0.5884
     19 C2'         0.5176    0.9128    0.3099 C.3       1 ATP         0.0784
     20 O2'        -0.2103    1.4454    1.4152 O.3       1 ATP        -0.6085
     21 C1'         0.6219    1.9765   -0.7844 C.3       1 ATP         0.2186
     22 N9          0.4237    1.4496   -2.1357 N.pl3     1 ATP        -0.1699
     23 C8          1.4069    0.9710   -2.9662 C.ar      1 ATP         0.4438
     24 N7          0.9316    0.5623   -4.1260 N.2       1 ATP        -0.6280
     25 C5         -0.4120    0.7884   -4.0344 C.ar      1 ATP         0.2109
     26 C6         -1.4353    0.5283   -5.0204 C.ar      1 ATP         0.6180
     27 N6         -1.1199    0.0176   -6.1586 N.2       1 ATP        -0.8319
     28 N1         -2.6704    0.9095   -4.5147 N.pl3     1 ATP        -0.8664
     29 C2         -2.8863    1.4571   -3.2520 C.ar      1 ATP         0.5952
     30 N3         -1.9805    1.7017   -2.3442 N.2       1 ATP        -0.5599
     31 C4         -0.7561    1.3381   -2.8112 C.ar      1 ATP         0.0076
     32 HOG3        7.3182   -0.2898    5.3229 H         1 ATP         0.4101
     33 H5'1        4.3028    1.6728   -0.8066 H         1 ATP         0.0364
     34 H5'2        4.5677    1.2738    0.9106 H         1 ATP         0.0364
     35 H4'         2.3752    2.7029    1.3156 H         1 ATP         0.0945
     36 H3'         2.4336   -0.1217   -0.0015 H         1 ATP         0.0703
     37 HO3'        1.7160   -0.6716    2.0397 H         1 ATP         0.4099
     38 H2'         0.0316    0.0155   -0.0339 H         1 ATP         0.0676
     39 HO2'       -0.1608    0.7921    2.1351 H         1 ATP         0.4291
     40 H1'        -0.1474    2.7798   -0.6651 H         1 ATP         0.0950
     41 H8          2.4466    0.9468   -2.6694 H         1 ATP         0.1135
     42 HN62       -1.9661   -0.0965   -6.7275 H         1 ATP         0.3588
     43 H2         -3.9481    1.6825   -3.0660 H         1 ATP         0.0302
     44 H44        -3.4814    0.7753   -5.1133 H         1 ATP         0.4215
@<TRIPOS>BOND
     1    1    2 2
     2    1    3 1
     3    1    4 1
     4    1    8 1
     5    4   32 1
     6    5    6 2
     7    5    7 1
     8    5    8 1
     9    5   12 1
    10    9   10 2
    11    9   11 1
    12    9   12 1
    13    9   13 1
    14   13   14 1
    15   14   15 1
    16   14   33 1
    17   14   34 1
    18   15   16 1
    19   15   17 1
    20   15   35 1
    21   16   21 1
    22   17   18 1
    23   17   19 1
    24   17   36 1
    25   18   37 1
    26   19   20 1
    27   19   21 1
    28   19   38 1
    29   20   39 1
    30   21   22 1
    31   21   40 1
    32   22   23 ar
    33   22   31 ar
    34   23   24 ar
    35   23   41 1
    36   24   25 ar
    37   25   26 ar
    38   25   31 ar
    39   26   27 2
    40   26   28 ar
    41   27   42 1
    42   28   29 ar
    43   28   44 1
    44   29   30 ar
    45   29   43 1
    46   30   31 ar
@<TRIPOS>SUBSTRUCTURE
     1 ATP         1 GROUP 0 A     ****
@<TRIPOS>MOLECULE
[[[3,4-dihydroxy-5-(6-imino-1~{H}-purin-9-yl)tetrahydrofuran-2-yl]methoxy-oxido-phosphoryl]oxy-oxido-phosphoryl] hydrogen phosphate
   44    46     1     0     0
SMALL
USER_CHARGES

@<TRIPOS>ATOM
      1 PG          0.9287    7.8389    4.3992 P.3       1 ATP         1.5257
      2 O1G         2.1048    7.1664    5.0715 O.co2     1 ATP        -0.8737
      3 O2G         0.0103    8.7566    5.1751 O.co2     1 ATP        -0.8737
      4 O3G         1.4715    8.6397    3.0839 O.3       1 ATP        -0.7971
      5 PB         -1.2528    6.8802    2.6483 P.3       1 ATP         1.6824
      6 O1B        -2.4101    7.4439    3.4423 O.co2     1 ATP        -0.8925
      7 O2B        -0.7867    7.5378    1.3685 O.co2     1 ATP        -0.8925
      8 O3B         0.0293    6.7055    3.6440 O.3       1 ATP        -0.8047
      9 PA         -1.9156    4.0918    3.3837 P.3       1 ATP         1.5908
     10 O1A        -3.2735    4.3719    3.9903 O.co2     1 ATP        -0.8932
     11 O2A        -0.7136    3.8310    4.2651 O.co2     1 ATP        -0.8932
     12 O3A        -1.5422    5.3014    2.3507 O.3       1 ATP        -0.8088
     13 O5'        -2.0401    2.8620    2.3128 O.3       1 ATP        -0.5646
     14 C5'        -0.8811    2.4285    1.6206 C.3       1 ATP         0.2204
     15 C4'        -0.1994    1.3333    2.4288 C.3       1 ATP         0.0965
     16 O4'        -1.1285    0.2356    2.5840 O.3       1 ATP        -0.3907
     17 C3'         1.0324    0.7610    1.7344 C.3       1 ATP         0.0763
     18 O3'         1.9175    0.2377    2.7247 O.3       1 ATP        -0.5884
     19 C2'         0.4468   -0.3802    0.9263 C.3       1 ATP         0.0784
     20 O2'         1.3993   -1.3703    0.5961 O.3       1 ATP        -0.6085
     21 C1'        -0.6159   -0.9100    1.8769 C.3       1 ATP         0.2186
     22 N9         -1.7127   -1.6108    1.2130 N.pl3     1 ATP        -0.1699
     23 C8         -2.8662   -1.0361    0.7388 C.ar      1 ATP         0.4438
     24 N7         -3.6774   -1.9166    0.1867 N.2       1 ATP        -0.6280
     25 C5         -3.0159   -3.1045    0.3122 C.ar      1 ATP         0.2109
     26 C6         -3.4377   -4.4169   -0.1199 C.ar      1 ATP         0.6180
     27 N6         -4.5720   -4.5691   -0.7080 N.2       1 ATP        -0.8319
     28 N1         -2.4600   -5.3463    0.2071 N.pl3     1 ATP        -0.8664
     29 C2         -1.2595   -5.0554    0.8515 C.ar      1 ATP         0.5952
     30 N3         -0.8555   -3.8803    1.2516 N.2       1 ATP        -0.5599
     31 C4         -1.7946   -2.9457    0.9448 C.ar      1 ATP         0.0076
     32 HOG3        0.8230    9.1315    2.5362 H         1 ATP         0.4101
     33 H5'1       -1.1767    2.0502    0.6368 H         1 ATP         0.0364
     34 H5'2       -0.2080    3.2814    1.4876 H         1 ATP         0.0364
     35 H4'         0.0403    1.7078    3.4343 H         1 ATP         0.0945
     36 H3'         1.5907    1.4859    1.1353 H         1 ATP         0.0703
     37 HO3'        2.6839   -0.1150    2.2479 H         1 ATP         0.4099
     38 H2'        -0.0017    0.0018    0.0005 H         1 ATP         0.0676
     39 HO2'        0.9369   -2.0558    0.0825 H         1 ATP         0.4291
     40 H1'        -0.1998   -1.6319    2.6178 H         1 ATP         0.0950
     41 H8         -3.0558    0.0252    0.8256 H         1 ATP         0.1135
     42 HN62       -4.7047   -5.5592   -0.9421 H         1 ATP         0.3588
     43 H2         -0.6372   -5.9505    1.0077 H         1 ATP         0.0302
     44 H44        -2.6338   -6.3155   -0.0469 H         1 ATP         0.4215
@<TRIPOS>BOND
     1    1    2 2
     2    1    3 1
     3    1    4 1
     4    1    8 1
     5    4   32 1
     6    5    6 2
     7    5    7 1
     8    5    8 1
     9    5   12 1
    10    9   10 2
    11    9   11 1
    12    9   12 1
    13    9   13 1
    14   13   14 1
    15   14   15 1
    16   14   33 1
    17   14   34 1
    18   15   16 1
    19   15   17 1
    20   15   35 1
    21   16   21 1
    22   17   18 1
    23   17   19 1
    24   17   36 1
    25   18   37 1
    26   19   20 1
    27   19   21 1
    28   19   38 1
    29   20   39 1
    30   21   22 1
    31   21   40 1
    32   22   23 ar
    33   22   31 ar
    34   23   24 ar
    35   23   41 1
    36   24   25 ar
    37   25   26 ar
    38   25   31 ar
    39   26   27 2
    40   26   28 ar
    41   27   42 1
    42   28   29 ar
    43   28   44 1
    44   29   30 ar
    45   29   43 1
    46   30   31 ar
@<TRIPOS>SUBSTRUCTURE
     1 ATP         1 GROUP 0 A     ****
@<TRIPOS>MOLECULE
[[[3,4-dihydroxy-5-(6-imino-1~{H}-purin-9-yl)tetrahydrofuran-2-yl]methoxy-oxido-phosphoryl]oxy-oxido-phosphoryl] hydrogen phosphate
   44    46     1     0     0
SMALL
USER_CHARGES

@<TRIPOS>ATOM
      1 PG          6.9040    5.9593    2.3415 P.3       1 ATP         1.5257
      2 O1G         7.6759    6.0984    3.6346 O.co2     1 ATP        -0.8737
      3 O2G         5.4904    5.4212    2.3341 O.co2     1 ATP        -0.8737
      4 O3G         6.9143    7.4002    1.5736 O.3       1 ATP        -0.7971
      5 PB          8.2613    3.5406    1.3162 P.3       1 ATP         1.6824
      6 O1B         8.9373    3.2013    0.0065 O.co2     1 ATP        -0.8925
      7 O2B         8.9383    3.2675    2.6409 O.co2     1 ATP        -0.8925
      8 O3B         7.8002    5.1063    1.2770 O.3       1 ATP        -0.8047
      9 PA          6.3565    1.2771    1.3734 P.3       1 ATP         1.5908
     10 O1A         6.8004    0.6872    2.6945 O.co2     1 ATP        -0.8932
     11 O2A         6.7697    0.6406    0.0643 O.co2     1 ATP        -0.8932
     12 O3A         6.7801    2.8546    1.3338 O.3       1 ATP        -0.8088
     13 O5'         4.7294    1.4427    1.3696 O.3       1 ATP        -0.5646
     14 C5'         4.0922    1.9801    0.2227 C.3       1 ATP         0.2204
     15 C4'         2.5944    2.0310    0.4653 C.3       1 ATP         0.0965
     16 O4'         1.9327    2.5740   -0.6889 O.3       1 ATP        -0.3907
     17 C3'         1.9685    0.6634    0.6767 C.3       1 ATP         0.0763
     18 O3'         2.1425    0.1975    1.9977 O.3       1 ATP        -0.5884
     19 C2'         0.5176    0.9128    0.3099 C.3       1 ATP         0.0784
     20 O2'        -0.2103    1.4454    1.4152 O.3       1 ATP        -0.6085
     21 C1'         0.6219    1.9765   -0.7844 C.3       1 ATP         0.2186
     22 N9          0.4237    1.4496   -2.1357 N.pl3     1 ATP        -0.1699
     23 C8          1.4069    0.9710   -2.9662 C.ar      1 ATP         0.4438
     24 N7          0.9316    0.5623   -4.1260 N.2       1 ATP        -0.6280
     25 C5         -0.4120    0.7884   -4.0344 C.ar      1 ATP         0.2109
     26 C6         -1.4353    0.5283   -5.0204 C.ar      1 ATP         0.6180
     27 N6         -1.1199    0.0176   -6.1586 N.2       1 ATP        -0.8319
     28 N1         -2.6704    0.9095   -4.5147 N.pl3     1 ATP        -0.8664
     29 C2         -2.8863    1.4571   -3.2520 C.ar      1 ATP         0.5952
     30 N3         -1.9805    1.7017   -2.3442 N.2       1 ATP        -0.5599
     31 C4         -0.7561    1.3381   -2.8112 C.ar      1 ATP         0.0076
     32 HOG3        6.4510    7.4734    0.7121 H         1 ATP         0.4101
     33 H5'1        4.4843    2.9854    0.0380 H         1 ATP         0.0364
     34 H5'2        4.3191    1.3446   -0.6392 H         1 ATP         0.0364
     35 H4'         2.3752    2.7029    1.3156 H         1 ATP         0.0945
     36 H3'         2.4336   -0.1217   -0.0015 H         1 ATP         0.0703
     37 HO3'        3.0987    0.1465    2.1461 H         1 ATP         0.4099
     38 H2'         0.0316    0.0155   -0.0339 H         1 ATP         0.0676
     39 HO2'       -0.1608    0.7921    2.1351 H         1 ATP         0.4291
     40 H1'        -0.1474    2.7798   -0.6651 H         1 ATP         0.0950
     41 H8          2.4466    0.9468   -2.6694 H         1 ATP         0.1135
     42 HN62       -1.9661   -0.0965   -6.7275 H         1 ATP         0.3588
     43 H2         -3.9481    1.6825   -3.0660 H         1 ATP         0.0302
     44 H44        -3.4814    0.7753   -5.1133 H         1 ATP         0.4215
@<TRIPOS>BOND
     1    1    2 2
     2    1    3 1
     3    1    4 1
     4    1    8 1
     5    4   32 1
     6    5    6 2
     7    5    7 1
     8    5    8 1
     9    5   12 1
    10    9   10 2
    11    9   11 1
    12    9   12 1
    13    9   13 1
    14   13   14 1
    15   14   15 1
    16   14   33 1
    17   14   34 1
    18   15   16 1
    19   15   17 1
    20   15   35 1
    21   16   21 1
    22   17   18 1
    23   17   19 1
    24   17   36 1
    25   18   37 1
    26   19   20 1
    27   19   21 1
    28   19   38 1
    29   20   39 1
    30   21   22 1
    31   21   40 1
    32   22   23 ar
    33   22   31 ar
    34   23   24 ar
    35   23   41 1
    36   24   25 ar
    37   25   26 ar
    38   25   31 ar
    39   26   27 2
    40   26   28 ar
    41   27   42 1
    42   28   29 ar
    43   28   44 1
    44   29   30 ar
    45   29   43 1
    46   30   31 ar
@<TRIPOS>SUBSTRUCTURE
     1 ATP         1 GROUP 0 A     ****
@<TRIPOS>MOLECULE
[[[3,4-dihydroxy-5-(6-imino-1~{H}-purin-9-yl)tetrahydrofuran-2-yl]methoxy-oxido-phosphoryl]oxy-oxido-phosphoryl] hydrogen phosphate
   44    46     1     0     0
SMALL
USER_CHARGES

@<TRIPOS>ATOM
      1 PG          7.4680    1.0361   -5.2677 P.3       1 ATP         1.5257
      2 O1G         8.1858    2.1306   -6.0254 O.co2     1 ATP        -0.8737
      3 O2G         6.4136    0.1868   -5.9419 O.co2     1 ATP        -0.8737
      4 O3G         8.5845    0.0465   -4.6042 O.3       1 ATP        -0.7971
      5 PB          7.5743    2.5160   -2.7100 P.3       1 ATP         1.6824
      6 O1B         8.5587    1.6156   -1.9976 O.co2     1 ATP        -0.8925
      7 O2B         8.0006    3.8547   -3.2702 O.co2     1 ATP        -0.8925
      8 O3B         6.8453    1.6610   -3.8946 O.3       1 ATP        -0.8047
      9 PA          6.1593    3.5241   -0.3148 P.3       1 ATP         1.5908
     10 O1A         6.4223    4.9968   -0.5434 O.co2     1 ATP        -0.8932
     11 O2A         6.9473    2.7489    0.7186 O.co2     1 ATP        -0.8932
     12 O3A         6.2776    2.7414   -1.7442 O.3       1 ATP        -0.8088
     13 O5'         4.5670    3.2937   -0.0211 O.3       1 ATP        -0.5646
     14 C5'         4.0922    1.9801    0.2227 C.3       1 ATP         0.2204
     15 C4'         2.5944    2.0310    0.4653 C.3       1 ATP         0.0965
     16 O4'         1.9327    2.5740   -0.6889 O.3       1 ATP        -0.3907
     17 C3'         1.9685    0.6634    0.6767 C.3       1 ATP         0.0763
     18 O3'         2.1425    0.1975    1.9977 O.3       1 ATP        -0.5884
     19 C2'         0.5176    0.9128    0.3099 C.3       1 ATP         0.0784
     20 O2'        -0.2103    1.4454    1.4152 O.3       1 ATP        -0.6085
     21 C1'         0.6219    1.9765   -0.7844 C.3       1 ATP         0.2186
     22 N9          0.4237    1.4496   -2.1357 N.pl3     1 ATP        -0.1699
     23 C8          1.4069    0.9710   -2.9662 C.ar      1 ATP         0.4438
     24 N7          0.9316    0.5623   -4.1260 N.2       1 ATP        -0.6280
     25 C5         -0.4120    0.7884   -4.0344 C.ar      1 ATP         0.2109
     26 C6         -1.4353    0.5283   -5.0204 C.ar      1 ATP         0.6180
     27 N6         -1.1199    0.0176   -6.1586 N.2       1 ATP        -0.8319
     28 N1         -2.6704    0.9095   -4.5147 N.pl3     1 ATP        -0.8664
     29 C2         -2.8863    1.4571   -3.2520 C.ar      1 ATP         0.5952
     30 N3         -1.9805    1.7017   -2.3442 N.2       1 ATP        -0.5599
     31 C4         -0.7561    1.3381   -2.8112 C.ar      1 ATP         0.0076
     32 HOG3        8.2743   -0.7197   -4.0761 H         1 ATP         0.4101
     33 H5'1        4.3179    1.3548   -0.6470 H         1 ATP         0.0364
     34 H5'2        4.6083    1.5737    1.0983 H         1 ATP         0.0364
     35 H4'         2.3752    2.7029    1.3156 H         1 ATP         0.0945
     36 H3'         2.4336   -0.1217   -0.0015 H         1 ATP         0.0703
     37 HO3'        1.7160   -0.6716    2.0397 H         1 ATP         0.4099
     38 H2'         0.0316    0.0155   -0.0339 H         1 ATP         0.0676
     39 HO2'       -0.1608    0.7921    2.1351 H         1 ATP         0.4291
     40 H1'        -0.1474    2.7798   -0.6651 H         1 ATP         0.0950
     41 H8          2.4466    0.9468   -2.6694 H         1 ATP         0.1135
     42 HN62       -1.9661   -0.0965   -6.7275 H         1 ATP         0.3588
     43 H2         -3.9481    1.6825   -3.0660 H         1 ATP         0.0302
     44 H44        -3.4814    0.7753   -5.1133 H         1 ATP         0.4215
@<TRIPOS>BOND
     1    1    2 2
     2    1    3 1
     3    1    4 1
     4    1    8 1
     5    4   32 1
     6    5    6 2
     7    5    7 1
     8    5    8 1
     9    5   12 1
    10    9   10 2
    11    9   11 1
    12    9   12 1
    13    9   13 1
    14   13   14 1
    15   14   15 1
    16   14   33 1
    17   14   34 1
    18   15   16 1
    19   15   17 1
    20   15   35 1
    21   16   21 1
    22   17   18 1
    23   17   19 1
    24   17   36 1
    25   18   37 1
    26   19   20 1
    27   19   21 1
    28   19   38 1
    29   20   39 1
    30   21   22 1
    31   21   40 1
    32   22   23 ar
    33   22   31 ar
    34   23   24 ar
    35   23   41 1
    36   24   25 ar
    37   25   26 ar
    38   25   31 ar
    39   26   27 2
    40   26   28 ar
    41   27   42 1
    42   28   29 ar
    43   28   44 1
    44   29   30 ar
    45   29   43 1
    46   30   31 ar
@<TRIPOS>SUBSTRUCTURE
     1 ATP         1 GROUP 0 A     ****
@<TRIPOS>MOLECULE
[[[3,4-dihydroxy-5-(6-imino-1~{H}-purin-9-yl)tetrahydrofuran-2-yl]methoxy-oxido-phosphoryl]oxy-oxido-phosphoryl] hydrogen phosphate
   44    46     1     0     0
SMALL
USER_CHARGES

@<TRIPOS>ATOM
      1 PG         -4.6330    8.1053    0.1955 P.3       1 ATP         1.5257
      2 O1G        -5.9617    7.6815   -0.3896 O.co2     1 ATP        -0.8737
      3 O2G        -3.7555    9.1108   -0.5164 O.co2     1 ATP        -0.8737
      4 O3G        -4.8809    8.6239    1.7237 O.3       1 ATP        -0.7971
      5 PB         -3.0946    5.6738   -0.4862 P.3       1 ATP         1.6824
      6 O1B        -4.2123    4.9121   -1.1631 O.co2     1 ATP        -0.8925
      7 O2B        -2.0045    6.3451   -1.2914 O.co2     1 ATP        -0.8925
      8 O3B        -3.7496    6.7736    0.5272 O.3       1 ATP        -0.8047
      9 PA         -3.0798    3.8627    1.8536 P.3       1 ATP         1.5908
     10 O1A        -3.9736    2.7897    1.2703 O.co2     1 ATP        -0.8932
     11 O2A        -3.6162    4.8491    2.8679 O.co2     1 ATP        -0.8932
     12 O3A        -2.4007    4.7039    0.6285 O.3       1 ATP        -0.8088
     13 O5'        -1.7336    3.1724    2.4750 O.3       1 ATP        -0.5646
     14 C5'        -0.8811    2.4285    1.6206 C.3       1 ATP         0.2204
     15 C4'        -0.1994    1.3333    2.4288 C.3       1 ATP         0.0965
     16 O4'        -1.1285    0.2356    2.5840 O.3       1 ATP        -0.3907
     17 C3'         1.0324    0.7610    1.7344 C.3       1 ATP         0.0763
     18 O3'         1.9175    0.2377    2.7247 O.3       1 ATP        -0.5884
     19 C2'         0.4468   -0.3802    0.9263 C.3       1 ATP         0.0784
     20 O2'         1.3993   -1.3703    0.5961 O.3       1 ATP        -0.6085
     21 C1'        -0.6159   -0.9100    1.8769 C.3       1 ATP         0.2186
     22 N9         -1.7127   -1.6108    1.2130 N.pl3     1 ATP        -0.1699
     23 C8         -2.0868   -2.9137    1.4327 C.ar      1 ATP         0.4438
     24 N7         -3.1125   -3.2756    0.6878 N.2       1 ATP        -0.6280
     25 C5         -3.4079   -2.1580   -0.0391 C.ar      1 ATP         0.2109
     26 C6         -4.4483   -1.9775   -1.0249 C.ar      1 ATP         0.6180
     27 N6         -5.2418   -2.9492   -1.3113 N.2       1 ATP        -0.8319
     28 N1         -4.3937   -0.6823   -1.5211 N.pl3     1 ATP        -0.8664
     29 C2         -3.4770    0.2901   -1.1271 C.ar      1 ATP         0.5952
     30 N3         -2.5289    0.1525   -0.2402 N.2       1 ATP        -0.5599
     31 C4         -2.5564   -1.1096    0.2655 C.ar      1 ATP         0.0076
     32 HOG3       -4.1086    8.9353    2.2422 H         1 ATP         0.4101
     33 H5'1       -1.4800    1.9927    0.8146 H         1 ATP         0.0364
     34 H5'2       -0.1367    3.1040    1.1872 H         1 ATP         0.0364
     35 H4'         0.0403    1.7078    3.4343 H         1 ATP         0.0945
     36 H3'         1.5907    1.4859    1.1353 H         1 ATP         0.0703
     37 HO3'        2.6839   -0.1150    2.2479 H         1 ATP         0.4099
     38 H2'        -0.0017    0.0018    0.0005 H         1 ATP         0.0676
     39 HO2'        2.0953   -0.9375    0.0709 H         1 ATP         0.4291
     40 H1'        -0.1998   -1.6319    2.6178 H         1 ATP         0.0950
     41 H8         -1.5740   -3.5449    2.1457 H         1 ATP         0.1135
     42 HN62       -5.9117   -2.6433   -2.0256 H         1 ATP         0.3588
     43 H2         -3.6225    1.2454   -1.6553 H         1 ATP         0.0302
     44 H44        -5.0794   -0.4231   -2.2258 H         1 ATP         0.4215
@<TRIPOS>BOND
     1    1    2 2
     2    1    3 1
     3    1    4 1
     4    1    8 1
     5    4   32 1
     6    5    6 2
     7    5    7 1
     8    5    8 1
     9    5   12 1
    10    9   10 2
    11    9   11 1
    12    9   12 1
    13    9   13 1
    14   13   14 1
    15   14   15 1
    16   14   33 1
    17   14   34 1
    18   15   16 1
    19   15   17 1
    20   15   35 1
    21   16   21 1
    22   17   18 1
    23   17   19 1
    24   17   36 1
    25   18   37 1
    26   19   20 1
    27   19   21 1
    28   19   38 1
    29   20   39 1
    30   21   22 1
    31   21   40 1
    32   22   23 ar
    33   22   31 ar
    34   23   24 ar
    35   23   41 1
    36   24   25 ar
    37   25   26 ar
    38   25   31 ar
    39   26   27 2
    40   26   28 ar
    41   27   42 1
    42   28   29 ar
    43   28   44 1
    44   29   30 ar
    45   29   43 1
    46   30   31 ar
@<TRIPOS>SUBSTRUCTURE
     1 ATP         1 GROUP 0 A     ****
@<TRIPOS>MOLECULE
[[[3,4-dihydroxy-5-(6-imino-1~{H}-purin-9-yl)tetrahydrofuran-2-yl]methoxy-oxido-phosphoryl]oxy-oxido-phosphoryl] hydrogen phosphate
   44    46     1     0     0
SMALL
USER_CHARGES

@<TRIPOS>ATOM
      1 PG          8.3552   -2.2030   -2.0215 P.3       1 ATP         1.5257
      2 O1G         7.6434   -3.1227   -2.9884 O.co2     1 ATP        -0.8737
      3 O2G         9.4975   -2.7066   -1.1676 O.co2     1 ATP        -0.8737
      4 O3G         8.8613   -0.8829   -2.8384 O.3       1 ATP        -0.7971
      5 PB          6.2777   -2.1382    0.0817 P.3       1 ATP         1.6824
      6 O1B         5.2769   -3.0470   -0.5964 O.co2     1 ATP        -0.8925
      7 O2B         7.1348   -2.6321    1.2258 O.co2     1 ATP        -0.8925
      8 O3B         7.2496   -1.4874   -1.0574 O.3       1 ATP        -0.8047
      9 PA          6.1203    0.6016    1.1881 P.3       1 ATP         1.5908
     10 O1A         6.9867    1.2778    0.1478 O.co2     1 ATP        -0.8932
     11 O2A         6.6660    0.2884    2.5643 O.co2     1 ATP        -0.8932
     12 O3A         5.5123   -0.7749    0.5513 O.3       1 ATP        -0.8088
     13 O5'         4.7294    1.4427    1.3696 O.3       1 ATP        -0.5646
     14 C5'         4.0922    1.9801    0.2227 C.3       1 ATP         0.2204
     15 C4'         2.5944    2.0310    0.4653 C.3       1 ATP         0.0965
     16 O4'         1.9327    2.5740   -0.6889 O.3       1 ATP        -0.3907
     17 C3'         1.9685    0.6634    0.6767 C.3       1 ATP         0.0763
     18 O3'         2.1425    0.1975    1.9977 O.3       1 ATP        -0.5884
     19 C2'         0.5176    0.9128    0.3099 C.3       1 ATP         0.0784
     20 O2'        -0.2103    1.4454    1.4152 O.3       1 ATP        -0.6085
     21 C1'         0.6219    1.9765   -0.7844 C.3       1 ATP         0.2186
     22 N9          0.4237    1.4496   -2.1357 N.pl3     1 ATP        -0.1699
     23 C8          1.4069    0.9710   -2.9662 C.ar      1 ATP         0.4438
     24 N7          0.9316    0.5623   -4.1260 N.2       1 ATP        -0.6280
     25 C5         -0.4120    0.7884   -4.0344 C.ar      1 ATP         0.2109
     26 C6         -1.4353    0.5283   -5.0204 C.ar      1 ATP         0.6180
     27 N6         -1.1199    0.0176   -6.1586 N.2       1 ATP        -0.8319
     28 N1         -2.6704    0.9095   -4.5147 N.pl3     1 ATP        -0.8664
     29 C2         -2.8863    1.4571   -3.2520 C.ar      1 ATP         0.5952
     30 N3         -1.9805    1.7017   -2.3442 N.2       1 ATP        -0.5599
     31 C4         -0.7561    1.3381   -2.8112 C.ar      1 ATP         0.0076
     32 HOG3        9.3446   -0.1858   -2.3457 H         1 ATP         0.4101
     33 H5'1        4.4843    2.9854    0.0380 H         1 ATP         0.0364
     34 H5'2        4.3191    1.3446   -0.6392 H         1 ATP         0.0364
     35 H4'         2.3752    2.7029    1.3156 H         1 ATP         0.0945
     36 H3'         2.4336   -0.1217   -0.0015 H         1 ATP         0.0703
     37 HO3'        3.0987    0.1465    2.1461 H         1 ATP         0.4099
     38 H2'         0.0316    0.0155   -0.0339 H         1 ATP         0.0676
     39 HO2'       -1.1270    1.5823    1.1180 H         1 ATP         0.4291
     40 H1'        -0.1474    2.7798   -0.6651 H         1 ATP         0.0950
     41 H8          2.4466    0.9468   -2.6694 H         1 ATP         0.1135
     42 HN62       -1.9661   -0.0965   -6.7275 H         1 ATP         0.3588
     43 H2         -3.9481    1.6825   -3.0660 H         1 ATP         0.0302
     44 H44        -3.4814    0.7753   -5.1133 H         1 ATP         0.4215
@<TRIPOS>BOND
     1    1    2 2
     2    1    3 1
     3    1    4 1
     4    1    8 1
     5    4   32 1
     6    5    6 2
     7    5    7 1
     8    5    8 1
     9    5   12 1
    10    9   10 2
    11    9   11 1
    12    9   12 1
    13    9   13 1
    14   13   14 1
    15   14   15 1
    16   14   33 1
    17   14   34 1
    18   15   16 1
    19   15   17 1
    20   15   35 1
    21   16   21 1
    22   17   18 1
    23   17   19 1
    24   17   36 1
    25   18   37 1
    26   19   20 1
    27   19   21 1
    28   19   38 1
    29   20   39 1
    30   21   22 1
    31   21   40 1
    32   22   23 ar
    33   22   31 ar
    34   23   24 ar
    35   23   41 1
    36   24   25 ar
    37   25   26 ar
    38   25   31 ar
    39   26   27 2
    40   26   28 ar
    41   27   42 1
    42   28   29 ar
    43   28   44 1
    44   29   30 ar
    45   29   43 1
    46   30   31 ar
@<TRIPOS>SUBSTRUCTURE
     1 ATP         1 GROUP 0 A     ****
@<TRIPOS>MOLECULE
[[[3,4-dihydroxy-5-(6-imino-1~{H}-purin-9-yl)tetrahydrofuran-2-yl]methoxy-oxido-phosphoryl]oxy-oxido-phosphoryl] hydrogen phosphate
   44    46     1     0     0
SMALL
USER_CHARGES

@<TRIPOS>ATOM
      1 PG          5.7882   -3.5782    3.1655 P.3       1 ATP         1.5257
      2 O1G         6.9192   -3.1715    4.0835 O.co2     1 ATP        -0.8737
      3 O2G         5.8096   -4.9098    2.4484 O.co2     1 ATP        -0.8737
      4 O3G         4.3829   -3.4547    3.9876 O.3       1 ATP        -0.7971
      5 PB          6.5002   -1.8678    0.8609 P.3       1 ATP         1.6824
      6 O1B         7.7286   -1.2219    1.4620 O.co2     1 ATP        -0.8925
      7 O2B         6.6187   -2.9644   -0.1740 O.co2     1 ATP        -0.8925
      8 O3B         5.5391   -2.3925    2.0719 O.3       1 ATP        -0.8047
      9 PA          5.7602    0.3298   -0.9771 P.3       1 ATP         1.5908
     10 O1A         5.8078   -0.4706   -2.2606 O.co2     1 ATP        -0.8932
     11 O2A         6.8838    1.2758   -0.6133 O.co2     1 ATP        -0.8932
     12 O3A         5.5274   -0.6960    0.2732 O.3       1 ATP        -0.8088
     13 O5'         4.3516    1.1575   -0.9026 O.3       1 ATP        -0.5646
     14 C5'         4.0922    1.9801    0.2227 C.3       1 ATP         0.2204
     15 C4'         2.5944    2.0310    0.4653 C.3       1 ATP         0.0965
     16 O4'         1.9327    2.5740   -0.6889 O.3       1 ATP        -0.3907
     17 C3'         1.9685    0.6634    0.6767 C.3       1 ATP         0.0763
     18 O3'         2.1425    0.1975    1.9977 O.3       1 ATP        -0.5884
     19 C2'         0.5176    0.9128    0.3099 C.3       1 ATP         0.0784
     20 O2'        -0.2103    1.4454    1.4152 O.3       1 ATP        -0.6085
     21 C1'         0.6219    1.9765   -0.7844 C.3       1 ATP         0.2186
     22 N9          0.4237    1.4496   -2.1357 N.pl3     1 ATP        -0.1699
     23 C8          1.4069    0.9710   -2.9662 C.ar      1 ATP         0.4438
     24 N7          0.9316    0.5623   -4.1260 N.2       1 ATP        -0.6280
     25 C5         -0.4120    0.7884   -4.0344 C.ar      1 ATP         0.2109
     26 C6         -1.4353    0.5283   -5.0204 C.ar      1 ATP         0.6180
     27 N6         -1.1199    0.0176   -6.1586 N.2       1 ATP        -0.8319
     28 N1         -2.6704    0.9095   -4.5147 N.pl3     1 ATP        -0.8664
     29 C2         -2.8863    1.4571   -3.2520 C.ar      1 ATP         0.5952
     30 N3         -1.9805    1.7017   -2.3442 N.2       1 ATP        -0.5599
     31 C4         -0.7561    1.3381   -2.8112 C.ar      1 ATP         0.0076
     32 HOG3        3.5494   -3.6860    3.5249 H         1 ATP         0.4101
     33 H5'1        4.6069    1.5618    1.0936 H         1 ATP         0.0364
     34 H5'2        4.4824    2.9837    0.0254 H         1 ATP         0.0364
     35 H4'         2.3752    2.7029    1.3156 H         1 ATP         0.0945
     36 H3'         2.4336   -0.1217   -0.0015 H         1 ATP         0.0703
     37 HO3'        3.0987    0.1465    2.1461 H         1 ATP         0.4099
     38 H2'         0.0316    0.0155   -0.0339 H         1 ATP         0.0676
     39 HO2'       -0.1608    0.7921    2.1351 H         1 ATP         0.4291
     40 H1'        -0.1474    2.7798   -0.6651 H         1 ATP         0.0950
     41 H8          2.4466    0.9468   -2.6694 H         1 ATP         0.1135
     42 HN62       -1.9661   -0.0965   -6.7275 H         1 ATP         0.3588
     43 H2         -3.9481    1.6825   -3.0660 H         1 ATP         0.0302
     44 H44        -3.4814    0.7753   -5.1133 H         1 ATP         0.4215
@<TRIPOS>BOND
     1    1    2 2
     2    1    3 1
     3    1    4 1
     4    1    8 1
     5    4   32 1
     6    5    6 2
     7    5    7 1
     8    5    8 1
     9    5   12 1
    10    9   10 2
    11    9   11 1
    12    9   12 1
    13    9   13 1
    14   13   14 1
    15   14   15 1
    16   14   33 1
    17   14   34 1
    18   15   16 1
    19   15   17 1
    20   15   35 1
    21   16   21 1
    22   17   18 1
    23   17   19 1
    24   17   36 1
    25   18   37 1
    26   19   20 1
    27   19   21 1
    28   19   38 1
    29   20   39 1
    30   21   22 1
    31   21   40 1
    32   22   23 ar
    33   22   31 ar
    34   23   24 ar
    35   23   41 1
    36   24   25 ar
    37   25   26 ar
    38   25   31 ar
    39   26   27 2
    40   26   28 ar
    41   27   42 1
    42   28   29 ar
    43   28   44 1
    44   29   30 ar
    45   29   43 1
    46   30   31 ar
@<TRIPOS>SUBSTRUCTURE
     1 ATP         1 GROUP 0 A     ****
@<TRIPOS>MOLECULE
[[[3,4-dihydroxy-5-(6-imino-1~{H}-purin-9-yl)tetrahydrofuran-2-yl]methoxy-oxido-phosphoryl]oxy-oxido-phosphoryl] hydrogen phosphate
   44    46     1     0     0
SMALL
USER_CHARGES

@<TRIPOS>ATOM
      1 PG          6.9789    5.8834    0.1270 P.3       1 ATP         1.5257
      2 O1G         5.6266    6.5594    0.0835 O.co2     1 ATP        -0.8737
      3 O2G         7.3587    4.8382   -0.8982 O.co2     1 ATP        -0.8737
      4 O3G         8.1348    7.0365    0.1445 O.3       1 ATP        -0.7971
      5 PB          6.4468    4.0548    2.3889 P.3       1 ATP         1.6824
      6 O1B         7.1642    3.7700    3.6895 O.co2     1 ATP        -0.8925
      7 O2B         4.9596    4.3287    2.3583 O.co2     1 ATP        -0.8925
      8 O3B         7.2189    5.2710    1.6206 O.3       1 ATP        -0.8047
      9 PA          6.3565    1.2771    1.3734 P.3       1 ATP         1.5908
     10 O1A         6.8004    0.6872    2.6945 O.co2     1 ATP        -0.8932
     11 O2A         6.7697    0.6406    0.0643 O.co2     1 ATP        -0.8932
     12 O3A         6.7801    2.8546    1.3338 O.3       1 ATP        -0.8088
     13 O5'         4.7294    1.4427    1.3696 O.3       1 ATP        -0.5646
     14 C5'         4.0922    1.9801    0.2227 C.3       1 ATP         0.2204
     15 C4'         2.5944    2.0310    0.4653 C.3       1 ATP         0.0965
     16 O4'         1.9327    2.5740   -0.6889 O.3       1 ATP        -0.3907
     17 C3'         1.9685    0.6634    0.6767 C.3       1 ATP         0.0763
     18 O3'         2.1425    0.1975    1.9977 O.3       1 ATP        -0.5884
     19 C2'         0.5176    0.9128    0.3099 C.3       1 ATP         0.0784
     20 O2'        -0.2103    1.4454    1.4152 O.3       1 ATP        -0.6085
     21 C1'         0.6219    1.9765   -0.7844 C.3       1 ATP         0.2186
     22 N9          0.4237    1.4496   -2.1357 N.pl3     1 ATP        -0.1699
     23 C8          1.4069    0.9710   -2.9662 C.ar      1 ATP         0.4438
     24 N7          0.9316    0.5623   -4.1260 N.2       1 ATP        -0.6280
     25 C5         -0.4120    0.7884   -4.0344 C.ar      1 ATP         0.2109
     26 C6         -1.4353    0.5283   -5.0204 C.ar      1 ATP         0.6180
     27 N6         -1.1199    0.0176   -6.1586 N.2       1 ATP        -0.8319
     28 N1         -2.6704    0.9095   -4.5147 N.pl3     1 ATP        -0.8664
     29 C2         -2.8863    1.4571   -3.2520 C.ar      1 ATP         0.5952
     30 N3         -1.9805    1.7017   -2.3442 N.2       1 ATP        -0.5599
     31 C4         -0.7561    1.3381   -2.8112 C.ar      1 ATP         0.0076
     32 HOG3        9.0742    6.7555    0.1725 H         1 ATP         0.4101
     33 H5'1        4.4843    2.9854    0.0380 H         1 ATP         0.0364
     34 H5'2        4.3191    1.3446   -0.6392 H         1 ATP         0.0364
     35 H4'         2.3752    2.7029    1.3156 H         1 ATP         0.0945
     36 H3'         2.4336   -0.1217   -0.0015 H         1 ATP         0.0703
     37 HO3'        3.0987    0.1465    2.1461 H         1 ATP         0.4099
     38 H2'         0.0316    0.0155   -0.0339 H         1 ATP         0.0676
     39 HO2'       -0.1608    0.7921    2.1351 H         1 ATP         0.4291
     40 H1'        -0.1474    2.7798   -0.6651 H         1 ATP         0.0950
     41 H8          2.4466    0.9468   -2.6694 H         1 ATP         0.1135
     42 HN62       -1.9661   -0.0965   -6.7275 H         1 ATP         0.3588
     43 H2         -3.9481    1.6825   -3.0660 H         1 ATP         0.0302
     44 H44        -3.4814    0.7753   -5.1133 H         1 ATP         0.4215
@<TRIPOS>BOND
     1    1    2 2
     2    1    3 1
     3    1    4 1
     4    1    8 1
     5    4   32 1
     6    5    6 2
     7    5    7 1
     8    5    8 1
     9    5   12 1
    10    9   10 2
    11    9   11 1
    12    9   12 1
    13    9   13 1
    14   13   14 1
    15   14   15 1
    16   14   33 1
    17   14   34 1
    18   15   16 1
    19   15   17 1
    20   15   35 1
    21   16   21 1
    22   17   18 1
    23   17   19 1
    24   17   36 1
    25   18   37 1
    26   19   20 1
    27   19   21 1
    28   19   38 1
    29   20   39 1
    30   21   22 1
    31   21   40 1
    32   22   23 ar
    33   22   31 ar
    34   23   24 ar
    35   23   41 1
    36   24   25 ar
    37   25   26 ar
    38   25   31 ar
    39   26   27 2
    40   26   28 ar
    41   27   42 1
    42   28   29 ar
    43   28   44 1
    44   29   30 ar
    45   29   43 1
    46   30   31 ar
@<TRIPOS>SUBSTRUCTURE
     1 ATP         1 GROUP 0 A     ****
@<TRIPOS>MOLECULE
[[[3,4-dihydroxy-5-(6-imino-1~{H}-purin-9-yl)tetrahydrofuran-2-yl]methoxy-oxido-phosphoryl]oxy-oxido-phosphoryl] hydrogen phosphate
   44    46     1     0     0
SMALL
USER_CHARGES

@<TRIPOS>ATOM
      1 PG          0.1877    7.6641    4.4036 P.3       1 ATP         1.5257
      2 O1G        -0.6556    8.3572    5.4504 O.co2     1 ATP        -0.8737
      3 O2G        -0.0650    7.8876    2.9291 O.co2     1 ATP        -0.8737
      4 O3G         1.7599    7.9772    4.7134 O.3       1 ATP        -0.7971
      5 PB         -1.0266    4.9765    4.6178 P.3       1 ATP         1.6824
      6 O1B        -0.4590    3.5905    4.8282 O.co2     1 ATP        -0.8925
      7 O2B        -2.1841    5.4834    5.4489 O.co2     1 ATP        -0.8925
      8 O3B         0.1922    6.0596    4.7022 O.3       1 ATP        -0.8047
      9 PA         -2.5400    4.4095    2.1393 P.3       1 ATP         1.5908
     10 O1A        -2.3768    4.8335    0.6957 O.co2     1 ATP        -0.8932
     11 O2A        -3.8713    4.5576    2.8432 O.co2     1 ATP        -0.8932
     12 O3A        -1.3978    5.1558    3.0383 O.3       1 ATP        -0.8088
     13 O5'        -2.0401    2.8620    2.3128 O.3       1 ATP        -0.5646
     14 C5'        -0.8811    2.4285    1.6206 C.3       1 ATP         0.2204
     15 C4'        -0.1994    1.3333    2.4288 C.3       1 ATP         0.0965
     16 O4'        -1.1285    0.2356    2.5840 O.3       1 ATP        -0.3907
     17 C3'         1.0324    0.7610    1.7344 C.3       1 ATP         0.0763
     18 O3'         1.9175    0.2377    2.7247 O.3       1 ATP        -0.5884
     19 C2'         0.4468   -0.3802    0.9263 C.3       1 ATP         0.0784
     20 O2'         1.3993   -1.3703    0.5961 O.3       1 ATP        -0.6085
     21 C1'        -0.6159   -0.9100    1.8769 C.3       1 ATP         0.2186
     22 N9         -1.7127   -1.6108    1.2130 N.pl3     1 ATP        -0.1699
     23 C8         -2.8662   -1.0361    0.7388 C.ar      1 ATP         0.4438
     24 N7         -3.6774   -1.9166    0.1867 N.2       1 ATP        -0.6280
     25 C5         -3.0159   -3.1045    0.3122 C.ar      1 ATP         0.2109
     26 C6         -3.4377   -4.4169   -0.1199 C.ar      1 ATP         0.6180
     27 N6         -4.5720   -4.5691   -0.7080 N.2       1 ATP        -0.8319
     28 N1         -2.4600   -5.3463    0.2071 N.pl3     1 ATP        -0.8664
     29 C2         -1.2595   -5.0554    0.8515 C.ar      1 ATP         0.5952
     30 N3         -0.8555   -3.8803    1.2516 N.2       1 ATP        -0.5599
     31 C4         -1.7946   -2.9457    0.9448 C.ar      1 ATP         0.0076
     32 HOG3        2.1310    7.6943    5.5763 H         1 ATP         0.4101
     33 H5'1       -1.1767    2.0502    0.6368 H         1 ATP         0.0364
     34 H5'2       -0.2080    3.2814    1.4876 H         1 ATP         0.0364
     35 H4'         0.0403    1.7078    3.4343 H         1 ATP         0.0945
     36 H3'         1.5907    1.4859    1.1353 H         1 ATP         0.0703
     37 HO3'        2.6839   -0.1150    2.2479 H         1 ATP         0.4099
     38 H2'        -0.0017    0.0018    0.0005 H         1 ATP         0.0676
     39 HO2'        0.9369   -2.0558    0.0825 H         1 ATP         0.4291
     40 H1'        -0.1998   -1.6319    2.6178 H         1 ATP         0.0950
     41 H8         -3.0558    0.0252    0.8256 H         1 ATP         0.1135
     42 HN62       -4.7047   -5.5592   -0.9421 H         1 ATP         0.3588
     43 H2         -0.6372   -5.9505    1.0077 H         1 ATP         0.0302
     44 H44        -2.6338   -6.3155   -0.0469 H         1 ATP         0.4215
@<TRIPOS>BOND
     1    1    2 2
     2    1    3 1
     3    1    4 1
     4    1    8 1
     5    4   32 1
     6    5    6 2
     7    5    7 1
     8    5    8 1
     9    5   12 1
    10    9   10 2
    11    9   11 1
    12    9   12 1
    13    9   13 1
    14   13   14 1
    15   14   15 1
    16   14   33 1
    17   14   34 1
    18   15   16 1
    19   15   17 1
    20   15   35 1
    21   16   21 1
    22   17   18 1
    23   17   19 1
    24   17   36 1
    25   18   37 1
    26   19   20 1
    27   19   21 1
    28   19   38 1
    29   20   39 1
    30   21   22 1
    31   21   40 1
    32   22   23 ar
    33   22   31 ar
    34   23   24 ar
    35   23   41 1
    36   24   25 ar
    37   25   26 ar
    38   25   31 ar
    39   26   27 2
    40   26   28 ar
    41   27   42 1
    42   28   29 ar
    43   28   44 1
    44   29   30 ar
    45   29   43 1
    46   30   31 ar
@<TRIPOS>SUBSTRUCTURE
     1 ATP         1 GROUP 0 A     ****
@<TRIPOS>MOLECULE
[[[3,4-dihydroxy-5-(6-imino-1~{H}-purin-9-yl)tetrahydrofuran-2-yl]methoxy-oxido-phosphoryl]oxy-oxido-phosphoryl] hydrogen phosphate
   44    46     1     0     0
SMALL
USER_CHARGES

@<TRIPOS>ATOM
      1 PG         -1.3795    4.1356   -4.5068 P.3       1 ATP         1.5257
      2 O1G        -0.6380    5.2908   -5.1416 O.co2     1 ATP        -0.8737
      3 O2G        -2.8889    4.1400   -4.4100 O.co2     1 ATP        -0.8737
      4 O3G        -0.9109    2.7535   -5.2389 O.3       1 ATP        -0.7971
      5 PB          0.7922    3.5943   -2.5744 P.3       1 ATP         1.6824
      6 O1B         1.2506    2.2738   -3.1521 O.co2     1 ATP        -0.8925
      7 O2B         1.5823    4.8642   -2.7993 O.co2     1 ATP        -0.8925
      8 O3B        -0.7553    3.8538   -3.0253 O.3       1 ATP        -0.8047
      9 PA         -0.0889    4.4444    0.1193 P.3       1 ATP         1.5908
     10 O1A        -1.5455    4.6750   -0.2201 O.co2     1 ATP        -0.8932
     11 O2A         0.8625    5.6104    0.2774 O.co2     1 ATP        -0.8932
     12 O3A         0.5468    3.4071   -0.9714 O.3       1 ATP        -0.8088
     13 O5'         0.0178    3.5131    1.4595 O.3       1 ATP        -0.5646
     14 C5'        -0.8811    2.4285    1.6206 C.3       1 ATP         0.2204
     15 C4'        -0.1994    1.3333    2.4288 C.3       1 ATP         0.0965
     16 O4'        -1.1285    0.2356    2.5840 O.3       1 ATP        -0.3907
     17 C3'         1.0324    0.7610    1.7344 C.3       1 ATP         0.0763
     18 O3'         1.9175    0.2377    2.7247 O.3       1 ATP        -0.5884
     19 C2'         0.4468   -0.3802    0.9263 C.3       1 ATP         0.0784
     20 O2'         1.3993   -1.3703    0.5961 O.3       1 ATP        -0.6085
     21 C1'        -0.6159   -0.9100    1.8769 C.3       1 ATP         0.2186
     22 N9         -1.7127   -1.6108    1.2130 N.pl3     1 ATP        -0.1699
     23 C8         -2.0868   -2.9137    1.4327 C.ar      1 ATP         0.4438
     24 N7         -3.1125   -3.2756    0.6878 N.2       1 ATP        -0.6280
     25 C5         -3.4079   -2.1580   -0.0391 C.ar      1 ATP         0.2109
     26 C6         -4.4483   -1.9775   -1.0249 C.ar      1 ATP         0.6180
     27 N6         -5.2418   -2.9492   -1.3113 N.2       1 ATP        -0.8319
     28 N1         -4.3937   -0.6823   -1.5211 N.pl3     1 ATP        -0.8664
     29 C2         -3.4770    0.2901   -1.1271 C.ar      1 ATP         0.5952
     30 N3         -2.5289    0.1525   -0.2402 N.2       1 ATP        -0.5599
     31 C4         -2.5564   -1.1096    0.2655 C.ar      1 ATP         0.0076
     32 HOG3        0.0375    2.5051   -5.2043 H         1 ATP         0.4101
     33 H5'1       -1.7771    2.7849    2.1387 H         1 ATP         0.0364
     34 H5'2       -1.1654    2.0541    0.6320 H         1 ATP         0.0364
     35 H4'         0.0403    1.7078    3.4343 H         1 ATP         0.0945
     36 H3'         1.5907    1.4859    1.1353 H         1 ATP         0.0703
     37 HO3'        2.6839   -0.1150    2.2479 H         1 ATP         0.4099
     38 H2'        -0.0017    0.0018    0.0005 H         1 ATP         0.0676
     39 HO2'        0.9369   -2.0558    0.0825 H         1 ATP         0.4291
     40 H1'        -0.1998   -1.6319    2.6178 H         1 ATP         0.0950
     41 H8         -1.5740   -3.5449    2.1457 H         1 ATP         0.1135
     42 HN62       -5.9117   -2.6433   -2.0256 H         1 ATP         0.3588
     43 H2         -3.6225    1.2454   -1.6553 H         1 ATP         0.0302
     44 H44        -5.0794   -0.4231   -2.2258 H         1 ATP         0.4215
@<TRIPOS>BOND
     1    1    2 2
     2    1    3 1
     3    1    4 1
     4    1    8 1
     5    4   32 1
     6    5    6 2
     7    5    7 1
     8    5    8 1
     9    5   12 1
    10    9   10 2
    11    9   11 1
    12    9   12 1
    13    9   13 1
    14   13   14 1
    15   14   15 1
    16   14   33 1
    17   14   34 1
    18   15   16 1
    19   15   17 1
    20   15   35 1
    21   16   21 1
    22   17   18 1
    23   17   19 1
    24   17   36 1
    25   18   37 1
    26   19   20 1
    27   19   21 1
    28   19   38 1
    29   20   39 1
    30   21   22 1
    31   21   40 1
    32   22   23 ar
    33   22   31 ar
    34   23   24 ar
    35   23   41 1
    36   24   25 ar
    37   25   26 ar
    38   25   31 ar
    39   26   27 2
    40   26   28 ar
    41   27   42 1
    42   28   29 ar
    43   28   44 1
    44   29   30 ar
    45   29   43 1
    46   30   31 ar
@<TRIPOS>SUBSTRUCTURE
     1 ATP         1 GROUP 0 A     ****
@<TRIPOS>MOLECULE
[[[3,4-dihydroxy-5-(6-imino-1~{H}-purin-9-yl)tetrahydrofuran-2-yl]methoxy-oxido-phosphoryl]oxy-oxido-phosphoryl] hydrogen phosphate
   44    46     1     0     0
SMALL
USER_CHARGES

@<TRIPOS>ATOM
      1 PG         -1.4361    7.8533    1.4212 P.3       1 ATP         1.5257
      2 O1G        -0.7127    6.8095    2.2425 O.co2     1 ATP        -0.8737
      3 O2G        -2.4228    8.8020    2.0647 O.co2     1 ATP        -0.8737
      4 O3G        -0.3272    8.7325    0.6068 O.3       1 ATP        -0.7971
      5 PB         -3.3926    6.0601    0.1172 P.3       1 ATP         1.6824
      6 O1B        -4.5549    6.6441    0.8888 O.co2     1 ATP        -0.8925
      7 O2B        -3.5650    5.5606   -1.2999 O.co2     1 ATP        -0.8925
      8 O3B        -2.1550    7.1245    0.1500 O.3       1 ATP        -0.8047
      9 PA         -3.3161    3.4234    1.4576 P.3       1 ATP         1.5908
     10 O1A        -3.5064    2.5741    0.2195 O.co2     1 ATP        -0.8932
     11 O2A        -4.4616    3.6587    2.4178 O.co2     1 ATP        -0.8932
     12 O3A        -2.7135    4.8751    1.0113 O.3       1 ATP        -0.8088
     13 O5'        -2.0401    2.8620    2.3128 O.3       1 ATP        -0.5646
     14 C5'        -0.8811    2.4285    1.6206 C.3       1 ATP         0.2204
     15 C4'        -0.1994    1.3333    2.4288 C.3       1 ATP         0.0965
     16 O4'        -1.1285    0.2356    2.5840 O.3       1 ATP        -0.3907
     17 C3'         1.0324    0.7610    1.7344 C.3       1 ATP         0.0763
     18 O3'         1.9175    0.2377    2.7247 O.3       1 ATP        -0.5884
     19 C2'         0.4468   -0.3802    0.9263 C.3       1 ATP         0.0784
     20 O2'         1.3993   -1.3703    0.5961 O.3       1 ATP        -0.6085
     21 C1'        -0.6159   -0.9100    1.8769 C.3       1 ATP         0.2186
     22 N9         -1.7127   -1.6108    1.2130 N.pl3     1 ATP        -0.1699
     23 C8         -1.5982   -2.7455    0.4481 C.ar      1 ATP         0.4438
     24 N7         -2.7593   -3.1533   -0.0249 N.2       1 ATP        -0.6280
     25 C5         -3.6547   -2.2420    0.4573 C.ar      1 ATP         0.2109
     26 C6         -5.0842   -2.1942    0.2543 C.ar      1 ATP         0.6180
     27 N6         -5.6648   -3.0919   -0.4618 N.2       1 ATP        -0.8319
     28 N1         -5.6087   -1.0978    0.9248 N.pl3     1 ATP        -0.8664
     29 C2         -4.8689   -0.1873    1.6760 C.ar      1 ATP         0.5952
     30 N3         -3.5787   -0.2081    1.8745 N.2       1 ATP        -0.5599
     31 C4         -3.0344   -1.2737    1.2284 C.ar      1 ATP         0.0076
     32 HOG3       -0.6416    9.4562    0.0240 H         1 ATP         0.4101
     33 H5'1       -1.1767    2.0502    0.6368 H         1 ATP         0.0364
     34 H5'2       -0.2080    3.2814    1.4876 H         1 ATP         0.0364
     35 H4'         0.0403    1.7078    3.4343 H         1 ATP         0.0945
     36 H3'         1.5907    1.4859    1.1353 H         1 ATP         0.0703
     37 HO3'        2.6839   -0.1150    2.2479 H         1 ATP         0.4099
     38 H2'        -0.0017    0.0018    0.0005 H         1 ATP         0.0676
     39 HO2'        2.0953   -0.9375    0.0709 H         1 ATP         0.4291
     40 H1'        -0.1998   -1.6319    2.6178 H         1 ATP         0.0950
     41 H8         -0.6448   -3.2254    0.2735 H         1 ATP         0.1135
     42 HN62       -6.6723   -2.9015   -0.4966 H         1 ATP         0.3588
     43 H2         -5.4961    0.6026    2.1183 H         1 ATP         0.0302
     44 H44        -6.6130   -0.9504    0.8642 H         1 ATP         0.4215
@<TRIPOS>BOND
     1    1    2 2
     2    1    3 1
     3    1    4 1
     4    1    8 1
     5    4   32 1
     6    5    6 2
     7    5    7 1
     8    5    8 1
     9    5   12 1
    10    9   10 2
    11    9   11 1
    12    9   12 1
    13    9   13 1
    14   13   14 1
    15   14   15 1
    16   14   33 1
    17   14   34 1
    18   15   16 1
    19   15   17 1
    20   15   35 1
    21   16   21 1
    22   17   18 1
    23   17   19 1
    24   17   36 1
    25   18   37 1
    26   19   20 1
    27   19   21 1
    28   19   38 1
    29   20   39 1
    30   21   22 1
    31   21   40 1
    32   22   23 ar
    33   22   31 ar
    34   23   24 ar
    35   23   41 1
    36   24   25 ar
    37   25   26 ar
    38   25   31 ar
    39   26   27 2
    40   26   28 ar
    41   27   42 1
    42   28   29 ar
    43   28   44 1
    44   29   30 ar
    45   29   43 1
    46   30   31 ar
@<TRIPOS>SUBSTRUCTURE
     1 ATP         1 GROUP 0 A     ****
@<TRIPOS>MOLECULE
[[[3,4-dihydroxy-5-(6-imino-1~{H}-purin-9-yl)tetrahydrofuran-2-yl]methoxy-oxido-phosphoryl]oxy-oxido-phosphoryl] hydrogen phosphate
   44    46     1     0     0
SMALL
USER_CHARGES

@<TRIPOS>ATOM
      1 PG          2.8173    6.5360    4.6042 P.3       1 ATP         1.5257
      2 O1G         3.5517    5.2728    4.9944 O.co2     1 ATP        -0.8737
      3 O2G         2.3784    7.5350    5.6516 O.co2     1 ATP        -0.8737
      4 O3G         3.6988    7.3211    3.4762 O.3       1 ATP        -0.7971
      5 PB          0.1741    5.3216    4.0728 P.3       1 ATP         1.6824
      6 O1B         0.5444    3.8892    4.3867 O.co2     1 ATP        -0.8925
      7 O2B        -0.6290    6.1546    5.0468 O.co2     1 ATP        -0.8925
      8 O3B         1.5317    6.1392    3.6803 O.3       1 ATP        -0.8047
      9 PA         -2.0037    4.7528    2.1522 P.3       1 ATP         1.5908
     10 O1A        -2.1556    4.9438    0.6587 O.co2     1 ATP        -0.8932
     11 O2A        -3.0635    5.2558    3.1081 O.co2     1 ATP        -0.8932
     12 O3A        -0.5615    5.3648    2.6161 O.3       1 ATP        -0.8088
     13 O5'        -1.7336    3.1724    2.4750 O.3       1 ATP        -0.5646
     14 C5'        -0.8811    2.4285    1.6206 C.3       1 ATP         0.2204
     15 C4'        -0.1994    1.3333    2.4288 C.3       1 ATP         0.0965
     16 O4'        -1.1285    0.2356    2.5840 O.3       1 ATP        -0.3907
     17 C3'         1.0324    0.7610    1.7344 C.3       1 ATP         0.0763
     18 O3'         1.9175    0.2377    2.7247 O.3       1 ATP        -0.5884
     19 C2'         0.4468   -0.3802    0.9263 C.3       1 ATP         0.0784
     20 O2'         1.3993   -1.3703    0.5961 O.3       1 ATP        -0.6085
     21 C1'        -0.6159   -0.9100    1.8769 C.3       1 ATP         0.2186
     22 N9         -1.7127   -1.6108    1.2130 N.pl3     1 ATP        -0.1699
     23 C8         -2.8662   -1.0361    0.7388 C.ar      1 ATP         0.4438
     24 N7         -3.6774   -1.9166    0.1867 N.2       1 ATP        -0.6280
     25 C5         -3.0159   -3.1045    0.3122 C.ar      1 ATP         0.2109
     26 C6         -3.4377   -4.4169   -0.1199 C.ar      1 ATP         0.6180
     27 N6         -4.5720   -4.5691   -0.7080 N.2       1 ATP        -0.8319
     28 N1         -2.4600   -5.3463    0.2071 N.pl3     1 ATP        -0.8664
     29 C2         -1.2595   -5.0554    0.8515 C.ar      1 ATP         0.5952
     30 N3         -0.8555   -3.8803    1.2516 N.2       1 ATP        -0.5599
     31 C4         -1.7946   -2.9457    0.9448 C.ar      1 ATP         0.0076
     32 HOG3        3.8929    6.8610    2.6318 H         1 ATP         0.4101
     33 H5'1       -1.4800    1.9927    0.8146 H         1 ATP         0.0364
     34 H5'2       -0.1367    3.1040    1.1872 H         1 ATP         0.0364
     35 H4'         0.0403    1.7078    3.4343 H         1 ATP         0.0945
     36 H3'         1.5907    1.4859    1.1353 H         1 ATP         0.0703
     37 HO3'        2.1521    0.9800    3.3017 H         1 ATP         0.4099
     38 H2'        -0.0017    0.0018    0.0005 H         1 ATP         0.0676
     39 HO2'        2.0953   -0.9375    0.0709 H         1 ATP         0.4291
     40 H1'        -0.1998   -1.6319    2.6178 H         1 ATP         0.0950
     41 H8         -3.0558    0.0252    0.8256 H         1 ATP         0.1135
     42 HN62       -4.7047   -5.5592   -0.9421 H         1 ATP         0.3588
     43 H2         -0.6372   -5.9505    1.0077 H         1 ATP         0.0302
     44 H44        -2.6338   -6.3155   -0.0469 H         1 ATP         0.4215
@<TRIPOS>BOND
     1    1    2 2
     2    1    3 1
     3    1    4 1
     4    1    8 1
     5    4   32 1
     6    5    6 2
     7    5    7 1
     8    5    8 1
     9    5   12 1
    10    9   10 2
    11    9   11 1
    12    9   12 1
    13    9   13 1
    14   13   14 1
    15   14   15 1
    16   14   33 1
    17   14   34 1
    18   15   16 1
    19   15   17 1
    20   15   35 1
    21   16   21 1
    22   17   18 1
    23   17   19 1
    24   17   36 1
    25   18   37 1
    26   19   20 1
    27   19   21 1
    28   19   38 1
    29   20   39 1
    30   21   22 1
    31   21   40 1
    32   22   23 ar
    33   22   31 ar
    34   23   24 ar
    35   23   41 1
    36   24   25 ar
    37   25   26 ar
    38   25   31 ar
    39   26   27 2
    40   26   28 ar
    41   27   42 1
    42   28   29 ar
    43   28   44 1
    44   29   30 ar
    45   29   43 1
    46   30   31 ar
@<TRIPOS>SUBSTRUCTURE
     1 ATP         1 GROUP 0 A     ****
@<TRIPOS>MOLECULE
[[[3,4-dihydroxy-5-(6-imino-1~{H}-purin-9-yl)tetrahydrofuran-2-yl]methoxy-oxido-phosphoryl]oxy-oxido-phosphoryl] hydrogen phosphate
   44    46     1     0     0
SMALL
USER_CHARGES

@<TRIPOS>ATOM
      1 PG         -4.2915    6.0078   -2.3575 P.3       1 ATP         1.5257
      2 O1G        -5.1787    7.1312   -1.8693 O.co2     1 ATP        -0.8737
      3 O2G        -4.7311    5.1062   -3.4896 O.co2     1 ATP        -0.8737
      4 O3G        -2.8265    6.6269   -2.7269 O.3       1 ATP        -0.7971
      5 PB         -4.7646    4.1198   -0.1315 P.3       1 ATP         1.6824
      6 O1B        -5.7152    4.9841    0.6664 O.co2     1 ATP        -0.8925
      7 O2B        -5.2685    2.9575   -0.9577 O.co2     1 ATP        -0.8925
      8 O3B        -3.8551    5.0841   -1.0847 O.3       1 ATP        -0.8047
      9 PA         -2.5926    4.4187    1.8556 P.3       1 ATP         1.5908
     10 O1A        -3.4218    5.0536    2.9508 O.co2     1 ATP        -0.8932
     11 O2A        -1.6631    5.2564    1.0048 O.co2     1 ATP        -0.8932
     12 O3A        -3.5855    3.5838    0.8621 O.3       1 ATP        -0.8088
     13 O5'        -1.7336    3.1724    2.4750 O.3       1 ATP        -0.5646
     14 C5'        -0.8811    2.4285    1.6206 C.3       1 ATP         0.2204
     15 C4'        -0.1994    1.3333    2.4288 C.3       1 ATP         0.0965
     16 O4'        -1.1285    0.2356    2.5840 O.3       1 ATP        -0.3907
     17 C3'         1.0324    0.7610    1.7344 C.3       1 ATP         0.0763
     18 O3'         1.9175    0.2377    2.7247 O.3       1 ATP        -0.5884
     19 C2'         0.4468   -0.3802    0.9263 C.3       1 ATP         0.0784
     20 O2'         1.3993   -1.3703    0.5961 O.3       1 ATP        -0.6085
     21 C1'        -0.6159   -0.9100    1.8769 C.3       1 ATP         0.2186
     22 N9         -1.7127   -1.6108    1.2130 N.pl3     1 ATP        -0.1699
     23 C8         -2.0868   -2.9137    1.4327 C.ar      1 ATP         0.4438
     24 N7         -3.1125   -3.2756    0.6878 N.2       1 ATP        -0.6280
     25 C5         -3.4079   -2.1580   -0.0391 C.ar      1 ATP         0.2109
     26 C6         -4.4483   -1.9775   -1.0249 C.ar      1 ATP         0.6180
     27 N6         -5.2418   -2.9492   -1.3113 N.2       1 ATP        -0.8319
     28 N1         -4.3937   -0.6823   -1.5211 N.pl3     1 ATP        -0.8664
     29 C2         -3.4770    0.2901   -1.1271 C.ar      1 ATP         0.5952
     30 N3         -2.5289    0.1525   -0.2402 N.2       1 ATP        -0.5599
     31 C4         -2.5564   -1.1096    0.2655 C.ar      1 ATP         0.0076
     32 HOG3       -2.1333    6.0185   -3.0608 H         1 ATP         0.4101
     33 H5'1       -1.4800    1.9927    0.8146 H         1 ATP         0.0364
     34 H5'2       -0.1367    3.1040    1.1872 H         1 ATP         0.0364
     35 H4'         0.0403    1.7078    3.4343 H         1 ATP         0.0945
     36 H3'         1.5907    1.4859    1.1353 H         1 ATP         0.0703
     37 HO3'        2.6839   -0.1150    2.2479 H         1 ATP         0.4099
     38 H2'        -0.0017    0.0018    0.0005 H         1 ATP         0.0676
     39 HO2'        2.0953   -0.9375    0.0709 H         1 ATP         0.4291
     40 H1'        -0.1998   -1.6319    2.6178 H         1 ATP         0.0950
     41 H8         -1.5740   -3.5449    2.1457 H         1 ATP         0.1135
     42 HN62       -5.9117   -2.6433   -2.0256 H         1 ATP         0.3588
     43 H2         -3.6225    1.2454   -1.6553 H         1 ATP         0.0302
     44 H44        -5.0794   -0.4231   -2.2258 H         1 ATP         0.4215
@<TRIPOS>BOND
     1    1    2 2
     2    1    3 1
     3    1    4 1
     4    1    8 1
     5    4   32 1
     6    5    6 2
     7    5    7 1
     8    5    8 1
     9    5   12 1
    10    9   10 2
    11    9   11 1
    12    9   12 1
    13    9   13 1
    14   13   14 1
    15   14   15 1
    16   14   33 1
    17   14   34 1
    18   15   16 1
    19   15   17 1
    20   15   35 1
    21   16   21 1
    22   17   18 1
    23   17   19 1
    24   17   36 1
    25   18   37 1
    26   19   20 1
    27   19   21 1
    28   19   38 1
    29   20   39 1
    30   21   22 1
    31   21   40 1
    32   22   23 ar
    33   22   31 ar
    34   23   24 ar
    35   23   41 1
    36   24   25 ar
    37   25   26 ar
    38   25   31 ar
    39   26   27 2
    40   26   28 ar
    41   27   42 1
    42   28   29 ar
    43   28   44 1
    44   29   30 ar
    45   29   43 1
    46   30   31 ar
@<TRIPOS>SUBSTRUCTURE
     1 ATP         1 GROUP 0 A     ****
@<TRIPOS>MOLECULE
[[[3,4-dihydroxy-5-(6-imino-1~{H}-purin-9-yl)tetrahydrofuran-2-yl]methoxy-oxido-phosphoryl]oxy-oxido-phosphoryl] hydrogen phosphate
   44    46     1     0     0
SMALL
USER_CHARGES

@<TRIPOS>ATOM
      1 PG         -1.5782    7.0742   -2.6035 P.3       1 ATP         1.5257
      2 O1G        -1.9198    8.4915   -2.2011 O.co2     1 ATP        -0.8737
      3 O2G        -2.2416    6.4237   -3.7970 O.co2     1 ATP        -0.8737
      4 O3G         0.0406    6.9626   -2.7856 O.3       1 ATP        -0.7971
      5 PB         -3.0946    5.6738   -0.4862 P.3       1 ATP         1.6824
      6 O1B        -3.6436    6.8984    0.2111 O.co2     1 ATP        -0.8925
      7 O2B        -3.9664    4.8294   -1.3888 O.co2     1 ATP        -0.8925
      8 O3B        -1.7483    6.0981   -1.3065 O.3       1 ATP        -0.8047
      9 PA         -3.0798    3.8627    1.8536 P.3       1 ATP         1.5908
     10 O1A        -3.9736    2.7897    1.2703 O.co2     1 ATP        -0.8932
     11 O2A        -3.6162    4.8491    2.8679 O.co2     1 ATP        -0.8932
     12 O3A        -2.4007    4.7039    0.6285 O.3       1 ATP        -0.8088
     13 O5'        -1.7336    3.1724    2.4750 O.3       1 ATP        -0.5646
     14 C5'        -0.8811    2.4285    1.6206 C.3       1 ATP         0.2204
     15 C4'        -0.1994    1.3333    2.4288 C.3       1 ATP         0.0965
     16 O4'        -1.1285    0.2356    2.5840 O.3       1 ATP        -0.3907
     17 C3'         1.0324    0.7610    1.7344 C.3       1 ATP         0.0763
     18 O3'         1.9175    0.2377    2.7247 O.3       1 ATP        -0.5884
     19 C2'         0.4468   -0.3802    0.9263 C.3       1 ATP         0.0784
     20 O2'         1.3993   -1.3703    0.5961 O.3       1 ATP        -0.6085
     21 C1'        -0.6159   -0.9100    1.8769 C.3       1 ATP         0.2186
     22 N9         -1.7127   -1.6108    1.2130 N.pl3     1 ATP        -0.1699
     23 C8         -3.0370   -1.2489    1.2455 C.ar      1 ATP         0.4438
     24 N7         -3.8008   -2.0709    0.5534 N.2       1 ATP        -0.6280
     25 C5         -2.9295   -2.9976    0.0567 C.ar      1 ATP         0.2109
     26 C6         -3.2152   -4.1411   -0.7786 C.ar      1 ATP         0.6180
     27 N6         -4.4238   -4.3865   -1.1456 N.2       1 ATP        -0.8319
     28 N1         -2.0349   -4.8186   -1.0521 N.pl3     1 ATP        -0.8664
     29 C2         -0.7728   -4.4501   -0.5916 C.ar      1 ATP         0.5952
     30 N3         -0.4885   -3.4234    0.1630 N.2       1 ATP        -0.5599
     31 C4         -1.6274   -2.7377    0.4492 C.ar      1 ATP         0.0076
     32 HOG3        0.4225    6.0978   -3.0475 H         1 ATP         0.4101
     33 H5'1       -1.4800    1.9927    0.8146 H         1 ATP         0.0364
     34 H5'2       -0.1367    3.1040    1.1872 H         1 ATP         0.0364
     35 H4'         0.0403    1.7078    3.4343 H         1 ATP         0.0945
     36 H3'         1.5907    1.4859    1.1353 H         1 ATP         0.0703
     37 HO3'        2.6839   -0.1150    2.2479 H         1 ATP         0.4099
     38 H2'        -0.0017    0.0018    0.0005 H         1 ATP         0.0676
     39 HO2'        2.0953   -0.9375    0.0709 H         1 ATP         0.4291
     40 H1'        -0.1998   -1.6319    2.6178 H         1 ATP         0.0950
     41 H8         -3.3806   -0.3795    1.7893 H         1 ATP         0.1135
     42 HN62       -4.4384   -5.2300   -1.7295 H         1 ATP         0.3588
     43 H2          0.0180   -5.1355   -0.9348 H         1 ATP         0.0302
     44 H44        -2.0977   -5.6477   -1.6374 H         1 ATP         0.4215
@<TRIPOS>BOND
     1    1    2 2
     2    1    3 1
     3    1    4 1
     4    1    8 1
     5    4   32 1
     6    5    6 2
     7    5    7 1
     8    5    8 1
     9    5   12 1
    10    9   10 2
    11    9   11 1
    12    9   12 1
    13    9   13 1
    14   13   14 1
    15   14   15 1
    16   14   33 1
    17   14   34 1
    18   15   16 1
    19   15   17 1
    20   15   35 1
    21   16   21 1
    22   17   18 1
    23   17   19 1
    24   17   36 1
    25   18   37 1
    26   19   20 1
    27   19   21 1
    28   19   38 1
    29   20   39 1
    30   21   22 1
    31   21   40 1
    32   22   23 ar
    33   22   31 ar
    34   23   24 ar
    35   23   41 1
    36   24   25 ar
    37   25   26 ar
    38   25   31 ar
    39   26   27 2
    40   26   28 ar
    41   27   42 1
    42   28   29 ar
    43   28   44 1
    44   29   30 ar
    45   29   43 1
    46   30   31 ar
@<TRIPOS>SUBSTRUCTURE
     1 ATP         1 GROUP 0 A     ****
@<TRIPOS>MOLECULE
[[[3,4-dihydroxy-5-(6-imino-1~{H}-purin-9-yl)tetrahydrofuran-2-yl]methoxy-oxido-phosphoryl]oxy-oxido-phosphoryl] hydrogen phosphate
   44    46     1     0     0
SMALL
USER_CHARGES

@<TRIPOS>ATOM
      1 PG         10.4373    1.6103    0.7795 P.3       1 ATP         1.5257
      2 O1G        10.7525    0.9266    2.0913 O.co2     1 ATP        -0.8737
      3 O2G        11.3461    2.6846    0.2249 O.co2     1 ATP        -0.8737
      4 O3G        10.2298    0.4649   -0.3655 O.3       1 ATP        -0.7971
      5 PB          8.2727    3.3750    1.7508 P.3       1 ATP         1.6824
      6 O1B         8.2866    2.9327    3.1970 O.co2     1 ATP        -0.8925
      7 O2B         8.8834    4.6928    1.3287 O.co2     1 ATP        -0.8925
      8 O3B         8.9106    2.1847    0.8333 O.3       1 ATP        -0.8047
      9 PA          6.1593    3.5241   -0.3148 P.3       1 ATP         1.5908
     10 O1A         6.6760    2.4087   -1.1975 O.co2     1 ATP        -0.8932
     11 O2A         6.3639    4.9731   -0.6998 O.co2     1 ATP        -0.8932
     12 O3A         6.7382    3.3079    1.1978 O.3       1 ATP        -0.8088
     13 O5'         4.5670    3.2937   -0.0211 O.3       1 ATP        -0.5646
     14 C5'         4.0922    1.9801    0.2227 C.3       1 ATP         0.2204
     15 C4'         2.5944    2.0310    0.4653 C.3       1 ATP         0.0965
     16 O4'         1.9327    2.5740   -0.6889 O.3       1 ATP        -0.3907
     17 C3'         1.9685    0.6634    0.6767 C.3       1 ATP         0.0763
     18 O3'         2.1425    0.1975    1.9977 O.3       1 ATP        -0.5884
     19 C2'         0.5176    0.9128    0.3099 C.3       1 ATP         0.0784
     20 O2'        -0.2103    1.4454    1.4152 O.3       1 ATP        -0.6085
     21 C1'         0.6219    1.9765   -0.7844 C.3       1 ATP         0.2186
     22 N9          0.4237    1.4496   -2.1357 N.pl3     1 ATP        -0.1699
     23 C8          1.4069    0.9710   -2.9662 C.ar      1 ATP         0.4438
     24 N7          0.9316    0.5623   -4.1260 N.2       1 ATP        -0.6280
     25 C5         -0.4120    0.7884   -4.0344 C.ar      1 ATP         0.2109
     26 C6         -1.4353    0.5283   -5.0204 C.ar      1 ATP         0.6180
     27 N6         -1.1199    0.0176   -6.1586 N.2       1 ATP        -0.8319
     28 N1         -2.6704    0.9095   -4.5147 N.pl3     1 ATP        -0.8664
     29 C2         -2.8863    1.4571   -3.2520 C.ar      1 ATP         0.5952
     30 N3         -1.9805    1.7017   -2.3442 N.2       1 ATP        -0.5599
     31 C4         -0.7561    1.3381   -2.8112 C.ar      1 ATP         0.0076
     32 HOG3       10.0176    0.7514   -1.2794 H         1 ATP         0.4101
     33 H5'1        4.3179    1.3548   -0.6470 H         1 ATP         0.0364
     34 H5'2        4.6083    1.5737    1.0983 H         1 ATP         0.0364
     35 H4'         2.3752    2.7029    1.3156 H         1 ATP         0.0945
     36 H3'         2.4336   -0.1217   -0.0015 H         1 ATP         0.0703
     37 HO3'        1.7160   -0.6716    2.0397 H         1 ATP         0.4099
     38 H2'         0.0316    0.0155   -0.0339 H         1 ATP         0.0676
     39 HO2'       -1.1270    1.5823    1.1180 H         1 ATP         0.4291
     40 H1'        -0.1474    2.7798   -0.6651 H         1 ATP         0.0950
     41 H8          2.4466    0.9468   -2.6694 H         1 ATP         0.1135
     42 HN62       -1.9661   -0.0965   -6.7275 H         1 ATP         0.3588
     43 H2         -3.9481    1.6825   -3.0660 H         1 ATP         0.0302
     44 H44        -3.4814    0.7753   -5.1133 H         1 ATP         0.4215
@<TRIPOS>BOND
     1    1    2 2
     2    1    3 1
     3    1    4 1
     4    1    8 1
     5    4   32 1
     6    5    6 2
     7    5    7 1
     8    5    8 1
     9    5   12 1
    10    9   10 2
    11    9   11 1
    12    9   12 1
    13    9   13 1
    14   13   14 1
    15   14   15 1
    16   14   33 1
    17   14   34 1
    18   15   16 1
    19   15   17 1
    20   15   35 1
    21   16   21 1
    22   17   18 1
    23   17   19 1
    24   17   36 1
    25   18   37 1
    26   19   20 1
    27   19   21 1
    28   19   38 1
    29   20   39 1
    30   21   22 1
    31   21   40 1
    32   22   23 ar
    33   22   31 ar
    34   23   24 ar
    35   23   41 1
    36   24   25 ar
    37   25   26 ar
    38   25   31 ar
    39   26   27 2
    40   26   28 ar
    41   27   42 1
    42   28   29 ar
    43   28   44 1
    44   29   30 ar
    45   29   43 1
    46   30   31 ar
@<TRIPOS>SUBSTRUCTURE
     1 ATP         1 GROUP 0 A     ****
@<TRIPOS>MOLECULE
[[[3,4-dihydroxy-5-(6-imino-1~{H}-purin-9-yl)tetrahydrofuran-2-yl]methoxy-oxido-phosphoryl]oxy-oxido-phosphoryl] hydrogen phosphate
   44    46     1     0     0
SMALL
USER_CHARGES

@<TRIPOS>ATOM
      1 PG         -2.1539    8.0999   -0.9255 P.3       1 ATP         1.5257
      2 O1G        -0.7607    8.6087   -0.6295 O.co2     1 ATP        -0.8737
      3 O2G        -3.3720    8.9354   -0.5998 O.co2     1 ATP        -0.8737
      4 O3G        -2.2257    7.6702   -2.4991 O.3       1 ATP        -0.7971
      5 PB         -3.5625    5.5559   -0.3896 P.3       1 ATP         1.6824
      6 O1B        -4.7848    6.1408    0.2824 O.co2     1 ATP        -0.8925
      7 O2B        -3.6175    5.0528   -1.8148 O.co2     1 ATP        -0.8925
      8 O3B        -2.3326    6.6215   -0.2577 O.3       1 ATP        -0.8047
      9 PA         -2.5400    4.4095    2.1393 P.3       1 ATP         1.5908
     10 O1A        -3.7865    4.6329    2.9680 O.co2     1 ATP        -0.8932
     11 O2A        -1.3370    5.3145    2.2921 O.co2     1 ATP        -0.8932
     12 O3A        -2.9585    4.3736    0.5603 O.3       1 ATP        -0.8088
     13 O5'        -2.0401    2.8620    2.3128 O.3       1 ATP        -0.5646
     14 C5'        -0.8811    2.4285    1.6206 C.3       1 ATP         0.2204
     15 C4'        -0.1994    1.3333    2.4288 C.3       1 ATP         0.0965
     16 O4'        -1.1285    0.2356    2.5840 O.3       1 ATP        -0.3907
     17 C3'         1.0324    0.7610    1.7344 C.3       1 ATP         0.0763
     18 O3'         1.9175    0.2377    2.7247 O.3       1 ATP        -0.5884
     19 C2'         0.4468   -0.3802    0.9263 C.3       1 ATP         0.0784
     20 O2'         1.3993   -1.3703    0.5961 O.3       1 ATP        -0.6085
     21 C1'        -0.6159   -0.9100    1.8769 C.3       1 ATP         0.2186
     22 N9         -1.7127   -1.6108    1.2130 N.pl3     1 ATP        -0.1699
     23 C8         -2.0868   -2.9137    1.4327 C.ar      1 ATP         0.4438
     24 N7         -3.1125   -3.2756    0.6878 N.2       1 ATP        -0.6280
     25 C5         -3.4079   -2.1580   -0.0391 C.ar      1 ATP         0.2109
     26 C6         -4.4483   -1.9775   -1.0249 C.ar      1 ATP         0.6180
     27 N6         -5.2418   -2.9492   -1.3113 N.2       1 ATP        -0.8319
     28 N1         -4.3937   -0.6823   -1.5211 N.pl3     1 ATP        -0.8664
     29 C2         -3.4770    0.2901   -1.1271 C.ar      1 ATP         0.5952
     30 N3         -2.5289    0.1525   -0.2402 N.2       1 ATP        -0.5599
     31 C4         -2.5564   -1.1096    0.2655 C.ar      1 ATP         0.0076
     32 HOG3       -3.0717    7.3173   -2.8486 H         1 ATP         0.4101
     33 H5'1       -1.1767    2.0502    0.6368 H         1 ATP         0.0364
     34 H5'2       -0.2080    3.2814    1.4876 H         1 ATP         0.0364
     35 H4'         0.0403    1.7078    3.4343 H         1 ATP         0.0945
     36 H3'         1.5907    1.4859    1.1353 H         1 ATP         0.0703
     37 HO3'        2.6839   -0.1150    2.2479 H         1 ATP         0.4099
     38 H2'        -0.0017    0.0018    0.0005 H         1 ATP         0.0676
     39 HO2'        0.9369   -2.0558    0.0825 H         1 ATP         0.4291
     40 H1'        -0.1998   -1.6319    2.6178 H         1 ATP         0.0950
     41 H8         -1.5740   -3.5449    2.1457 H         1 ATP         0.1135
     42 HN62       -5.9117   -2.6433   -2.0256 H         1 ATP         0.3588
     43 H2         -3.6225    1.2454   -1.6553 H         1 ATP         0.0302
     44 H44        -5.0794   -0.4231   -2.2258 H         1 ATP         0.4215
@<TRIPOS>BOND
     1    1    2 2
     2    1    3 1
     3    1    4 1
     4    1    8 1
     5    4   32 1
     6    5    6 2
     7    5    7 1
     8    5    8 1
     9    5   12 1
    10    9   10 2
    11    9   11 1
    12    9   12 1
    13    9   13 1
    14   13   14 1
    15   14   15 1
    16   14   33 1
    17   14   34 1
    18   15   16 1
    19   15   17 1
    20   15   35 1
    21   16   21 1
    22   17   18 1
    23   17   19 1
    24   17   36 1
    25   18   37 1
    26   19   20 1
    27   19   21 1
    28   19   38 1
    29   20   39 1
    30   21   22 1
    31   21   40 1
    32   22   23 ar
    33   22   31 ar
    34   23   24 ar
    35   23   41 1
    36   24   25 ar
    37   25   26 ar
    38   25   31 ar
    39   26   27 2
    40   26   28 ar
    41   27   42 1
    42   28   29 ar
    43   28   44 1
    44   29   30 ar
    45   29   43 1
    46   30   31 ar
@<TRIPOS>SUBSTRUCTURE
     1 ATP         1 GROUP 0 A     ****
@<TRIPOS>MOLECULE
[[[3,4-dihydroxy-5-(6-imino-1~{H}-purin-9-yl)tetrahydrofuran-2-yl]methoxy-oxido-phosphoryl]oxy-oxido-phosphoryl] hydrogen phosphate
   44    46     1     0     0
SMALL
USER_CHARGES

@<TRIPOS>ATOM
      1 PG          9.9761    5.7839    1.5526 P.3       1 ATP         1.5257
      2 O1G        11.0704    5.1942    0.6910 O.co2     1 ATP        -0.8737
      3 O2G        10.1886    6.0086    3.0332 O.co2     1 ATP        -0.8737
      4 O3G         9.4868    7.1889    0.8800 O.3       1 ATP        -0.7971
      5 PB          8.2727    3.3750    1.7508 P.3       1 ATP         1.6824
      6 O1B         9.1306    2.4529    0.9135 O.co2     1 ATP        -0.8925
      7 O2B         8.2499    3.2688    3.2593 O.co2     1 ATP        -0.8925
      8 O3B         8.6085    4.9190    1.3398 O.3       1 ATP        -0.8047
      9 PA          6.1593    3.5241   -0.3148 P.3       1 ATP         1.5908
     10 O1A         6.6760    2.4087   -1.1975 O.co2     1 ATP        -0.8932
     11 O2A         6.3639    4.9731   -0.6998 O.co2     1 ATP        -0.8932
     12 O3A         6.7382    3.3079    1.1978 O.3       1 ATP        -0.8088
     13 O5'         4.5670    3.2937   -0.0211 O.3       1 ATP        -0.5646
     14 C5'         4.0922    1.9801    0.2227 C.3       1 ATP         0.2204
     15 C4'         2.5944    2.0310    0.4653 C.3       1 ATP         0.0965
     16 O4'         1.9327    2.5740   -0.6889 O.3       1 ATP        -0.3907
     17 C3'         1.9685    0.6634    0.6767 C.3       1 ATP         0.0763
     18 O3'         2.1425    0.1975    1.9977 O.3       1 ATP        -0.5884
     19 C2'         0.5176    0.9128    0.3099 C.3       1 ATP         0.0784
     20 O2'        -0.2103    1.4454    1.4152 O.3       1 ATP        -0.6085
     21 C1'         0.6219    1.9765   -0.7844 C.3       1 ATP         0.2186
     22 N9          0.4237    1.4496   -2.1357 N.pl3     1 ATP        -0.1699
     23 C8          1.4069    0.9710   -2.9662 C.ar      1 ATP         0.4438
     24 N7          0.9316    0.5623   -4.1260 N.2       1 ATP        -0.6280
     25 C5         -0.4120    0.7884   -4.0344 C.ar      1 ATP         0.2109
     26 C6         -1.4353    0.5283   -5.0204 C.ar      1 ATP         0.6180
     27 N6         -1.1199    0.0176   -6.1586 N.2       1 ATP        -0.8319
     28 N1         -2.6704    0.9095   -4.5147 N.pl3     1 ATP        -0.8664
     29 C2         -2.8863    1.4571   -3.2520 C.ar      1 ATP         0.5952
     30 N3         -1.9805    1.7017   -2.3442 N.2       1 ATP        -0.5599
     31 C4         -0.7561    1.3381   -2.8112 C.ar      1 ATP         0.0076
     32 HOG3        8.7751    7.6966    1.3250 H         1 ATP         0.4101
     33 H5'1        4.3179    1.3548   -0.6470 H         1 ATP         0.0364
     34 H5'2        4.6083    1.5737    1.0983 H         1 ATP         0.0364
     35 H4'         2.3752    2.7029    1.3156 H         1 ATP         0.0945
     36 H3'         2.4336   -0.1217   -0.0015 H         1 ATP         0.0703
     37 HO3'        3.0987    0.1465    2.1461 H         1 ATP         0.4099
     38 H2'         0.0316    0.0155   -0.0339 H         1 ATP         0.0676
     39 HO2'       -0.1608    0.7921    2.1351 H         1 ATP         0.4291
     40 H1'        -0.1474    2.7798   -0.6651 H         1 ATP         0.0950
     41 H8          2.4466    0.9468   -2.6694 H         1 ATP         0.1135
     42 HN62       -1.9661   -0.0965   -6.7275 H         1 ATP         0.3588
     43 H2         -3.9481    1.6825   -3.0660 H         1 ATP         0.0302
     44 H44        -3.4814    0.7753   -5.1133 H         1 ATP         0.4215
@<TRIPOS>BOND
     1    1    2 2
     2    1    3 1
     3    1    4 1
     4    1    8 1
     5    4   32 1
     6    5    6 2
     7    5    7 1
     8    5    8 1
     9    5   12 1
    10    9   10 2
    11    9   11 1
    12    9   12 1
    13    9   13 1
    14   13   14 1
    15   14   15 1
    16   14   33 1
    17   14   34 1
    18   15   16 1
    19   15   17 1
    20   15   35 1
    21   16   21 1
    22   17   18 1
    23   17   19 1
    24   17   36 1
    25   18   37 1
    26   19   20 1
    27   19   21 1
    28   19   38 1
    29   20   39 1
    30   21   22 1
    31   21   40 1
    32   22   23 ar
    33   22   31 ar
    34   23   24 ar
    35   23   41 1
    36   24   25 ar
    37   25   26 ar
    38   25   31 ar
    39   26   27 2
    40   26   28 ar
    41   27   42 1
    42   28   29 ar
    43   28   44 1
    44   29   30 ar
    45   29   43 1
    46   30   31 ar
@<TRIPOS>SUBSTRUCTURE
     1 ATP         1 GROUP 0 A     ****
@<TRIPOS>MOLECULE
[[[3,4-dihydroxy-5-(6-imino-1~{H}-purin-9-yl)tetrahydrofuran-2-yl]methoxy-oxido-phosphoryl]oxy-oxido-phosphoryl] hydrogen phosphate
   44    46     1     0     0
SMALL
USER_CHARGES

@<TRIPOS>ATOM
      1 PG         -0.6234    4.6901    7.7239 P.3       1 ATP         1.5257
      2 O1G        -0.1513    3.4199    8.3955 O.co2     1 ATP        -0.8737
      3 O2G        -1.9780    5.2817    8.0446 O.co2     1 ATP        -0.8737
      4 O3G         0.5109    5.8443    7.9412 O.3       1 ATP        -0.7971
      5 PB         -0.7129    5.6110    4.9154 P.3       1 ATP         1.6824
      6 O1B        -2.1747    5.9970    4.8770 O.co2     1 ATP        -0.8925
      7 O2B         0.3721    6.6601    5.0135 O.co2     1 ATP        -0.8925
      8 O3B        -0.4917    4.5163    6.1064 O.3       1 ATP        -0.8047
      9 PA         -0.3962    4.9846    2.0409 P.3       1 ATP         1.5908
     10 O1A         0.7136    5.9719    1.7515 O.co2     1 ATP        -0.8932
     11 O2A        -1.8200    5.2757    1.6193 O.co2     1 ATP        -0.8932
     12 O3A        -0.3932    4.6446    3.6391 O.3       1 ATP        -0.8088
     13 O5'         0.0178    3.5131    1.4595 O.3       1 ATP        -0.5646
     14 C5'        -0.8811    2.4285    1.6206 C.3       1 ATP         0.2204
     15 C4'        -0.1994    1.3333    2.4288 C.3       1 ATP         0.0965
     16 O4'        -1.1285    0.2356    2.5840 O.3       1 ATP        -0.3907
     17 C3'         1.0324    0.7610    1.7344 C.3       1 ATP         0.0763
     18 O3'         1.9175    0.2377    2.7247 O.3       1 ATP        -0.5884
     19 C2'         0.4468   -0.3802    0.9263 C.3       1 ATP         0.0784
     20 O2'         1.3993   -1.3703    0.5961 O.3       1 ATP        -0.6085
     21 C1'        -0.6159   -0.9100    1.8769 C.3       1 ATP         0.2186
     22 N9         -1.7127   -1.6108    1.2130 N.pl3     1 ATP        -0.1699
     23 C8         -2.5485   -1.0808    0.2609 C.ar      1 ATP         0.4438
     24 N7         -3.4476   -1.9486   -0.1593 N.2       1 ATP        -0.6280
     25 C5         -3.1762   -3.0816    0.5530 C.ar      1 ATP         0.2109
     26 C6         -3.8510   -4.3579    0.5006 C.ar      1 ATP         0.6180
     27 N6         -4.8468   -4.5293   -0.2961 N.2       1 ATP        -0.8319
     28 N1         -3.2499   -5.2342    1.3937 N.pl3     1 ATP        -0.8664
     29 C2         -2.1646   -4.9275    2.2116 C.ar      1 ATP         0.5952
     30 N3         -1.5382   -3.7840    2.2778 N.2       1 ATP        -0.5599
     31 C4         -2.1054   -2.9018    1.4120 C.ar      1 ATP         0.0076
     32 HOG3        0.3504    6.7341    7.5608 H         1 ATP         0.4101
     33 H5'1       -1.7771    2.7849    2.1387 H         1 ATP         0.0364
     34 H5'2       -1.1654    2.0541    0.6320 H         1 ATP         0.0364
     35 H4'         0.0403    1.7078    3.4343 H         1 ATP         0.0945
     36 H3'         1.5907    1.4859    1.1353 H         1 ATP         0.0703
     37 HO3'        2.1521    0.9800    3.3017 H         1 ATP         0.4099
     38 H2'        -0.0017    0.0018    0.0005 H         1 ATP         0.0676
     39 HO2'        0.9369   -2.0558    0.0825 H         1 ATP         0.4291
     40 H1'        -0.1998   -1.6319    2.6178 H         1 ATP         0.0950
     41 H8         -2.4515   -0.0599   -0.0829 H         1 ATP         0.1135
     42 HN62       -5.1990   -5.4882   -0.2005 H         1 ATP         0.3588
     43 H2         -1.8555   -5.7783    2.8388 H         1 ATP         0.0302
     44 H44        -3.6312   -6.1750    1.4526 H         1 ATP         0.4215
@<TRIPOS>BOND
     1    1    2 2
     2    1    3 1
     3    1    4 1
     4    1    8 1
     5    4   32 1
     6    5    6 2
     7    5    7 1
     8    5    8 1
     9    5   12 1
    10    9   10 2
    11    9   11 1
    12    9   12 1
    13    9   13 1
    14   13   14 1
    15   14   15 1
    16   14   33 1
    17   14   34 1
    18   15   16 1
    19   15   17 1
    20   15   35 1
    21   16   21 1
    22   17   18 1
    23   17   19 1
    24   17   36 1
    25   18   37 1
    26   19   20 1
    27   19   21 1
    28   19   38 1
    29   20   39 1
    30   21   22 1
    31   21   40 1
    32   22   23 ar
    33   22   31 ar
    34   23   24 ar
    35   23   41 1
    36   24   25 ar
    37   25   26 ar
    38   25   31 ar
    39   26   27 2
    40   26   28 ar
    41   27   42 1
    42   28   29 ar
    43   28   44 1
    44   29   30 ar
    45   29   43 1
    46   30   31 ar
@<TRIPOS>SUBSTRUCTURE
     1 ATP         1 GROUP 0 A     ****
@<TRIPOS>MOLECULE
[[[3,4-dihydroxy-5-(6-imino-1~{H}-purin-9-yl)tetrahydrofuran-2-yl]methoxy-oxido-phosphoryl]oxy-oxido-phosphoryl] hydrogen phosphate
   44    46     1     0     0
SMALL
USER_CHARGES

@<TRIPOS>ATOM
      1 PG         -3.4903    7.0218    0.2530 P.3       1 ATP         1.5257
      2 O1G        -2.9251    5.7881   -0.4149 O.co2     1 ATP        -0.8737
      3 O2G        -2.9976    8.4023   -0.1199 O.co2     1 ATP        -0.8737
      4 O3G        -5.1159    6.9936    0.1038 O.3       1 ATP        -0.7971
      5 PB         -2.0719    6.7716    2.8355 P.3       1 ATP         1.6824
      6 O1B        -1.2041    7.9796    2.5614 O.co2     1 ATP        -0.8925
      7 O2B        -2.5170    6.4293    4.2399 O.co2     1 ATP        -0.8925
      8 O3B        -3.3881    6.8432    1.8721 O.3       1 ATP        -0.8047
      9 PA          0.0330    4.7083    2.5757 P.3       1 ATP         1.5908
     10 O1A        -0.1146    4.1098    3.9578 O.co2     1 ATP        -0.8932
     11 O2A         1.1815    5.6399    2.2548 O.co2     1 ATP        -0.8932
     12 O3A        -1.3630    5.4574    2.1758 O.3       1 ATP        -0.8088
     13 O5'         0.0178    3.5131    1.4595 O.3       1 ATP        -0.5646
     14 C5'        -0.8811    2.4285    1.6206 C.3       1 ATP         0.2204
     15 C4'        -0.1994    1.3333    2.4288 C.3       1 ATP         0.0965
     16 O4'        -1.1285    0.2356    2.5840 O.3       1 ATP        -0.3907
     17 C3'         1.0324    0.7610    1.7344 C.3       1 ATP         0.0763
     18 O3'         1.9175    0.2377    2.7247 O.3       1 ATP        -0.5884
     19 C2'         0.4468   -0.3802    0.9263 C.3       1 ATP         0.0784
     20 O2'         1.3993   -1.3703    0.5961 O.3       1 ATP        -0.6085
     21 C1'        -0.6159   -0.9100    1.8769 C.3       1 ATP         0.2186
     22 N9         -1.7127   -1.6108    1.2130 N.pl3     1 ATP        -0.1699
     23 C8         -1.7690   -2.9583    0.9549 C.ar      1 ATP         0.4438
     24 N7         -2.8827   -3.3076    0.3418 N.2       1 ATP        -0.6280
     25 C5         -3.5683   -2.1351    0.2017 C.ar      1 ATP         0.2109
     26 C6         -4.8617   -1.9185   -0.4044 C.ar      1 ATP         0.6180
     27 N6         -5.5166   -2.9094   -0.8993 N.2       1 ATP        -0.8319
     28 N1         -5.1837   -0.5701   -0.3344 N.pl3     1 ATP        -0.8664
     29 C2         -4.3821    0.4180    0.2330 C.ar      1 ATP         0.5952
     30 N3         -3.2117    0.2488    0.7860 N.2       1 ATP        -0.5599
     31 C4         -2.8672   -1.0657    0.7327 C.ar      1 ATP         0.0076
     32 HOG3       -5.6331    7.7327    0.4894 H         1 ATP         0.4101
     33 H5'1       -1.7771    2.7849    2.1387 H         1 ATP         0.0364
     34 H5'2       -1.1654    2.0541    0.6320 H         1 ATP         0.0364
     35 H4'         0.0403    1.7078    3.4343 H         1 ATP         0.0945
     36 H3'         1.5907    1.4859    1.1353 H         1 ATP         0.0703
     37 HO3'        2.6839   -0.1150    2.2479 H         1 ATP         0.4099
     38 H2'        -0.0017    0.0018    0.0005 H         1 ATP         0.0676
     39 HO2'        2.0953   -0.9375    0.0709 H         1 ATP         0.4291
     40 H1'        -0.1998   -1.6319    2.6178 H         1 ATP         0.0950
     41 H8         -0.9697   -3.6300    1.2371 H         1 ATP         0.1135
     42 HN62       -6.4060   -2.5723   -1.2840 H         1 ATP         0.3588
     43 H2         -4.8409    1.4176    0.1757 H         1 ATP         0.0302
     44 H44        -6.0768   -0.2826   -0.7263 H         1 ATP         0.4215
@<TRIPOS>BOND
     1    1    2 2
     2    1    3 1
     3    1    4 1
     4    1    8 1
     5    4   32 1
     6    5    6 2
     7    5    7 1
     8    5    8 1
     9    5   12 1
    10    9   10 2
    11    9   11 1
    12    9   12 1
    13    9   13 1
    14   13   14 1
    15   14   15 1
    16   14   33 1
    17   14   34 1
    18   15   16 1
    19   15   17 1
    20   15   35 1
    21   16   21 1
    22   17   18 1
    23   17   19 1
    24   17   36 1
    25   18   37 1
    26   19   20 1
    27   19   21 1
    28   19   38 1
    29   20   39 1
    30   21   22 1
    31   21   40 1
    32   22   23 ar
    33   22   31 ar
    34   23   24 ar
    35   23   41 1
    36   24   25 ar
    37   25   26 ar
    38   25   31 ar
    39   26   27 2
    40   26   28 ar
    41   27   42 1
    42   28   29 ar
    43   28   44 1
    44   29   30 ar
    45   29   43 1
    46   30   31 ar
@<TRIPOS>SUBSTRUCTURE
     1 ATP         1 GROUP 0 A     ****
@<TRIPOS>MOLECULE
[[[3,4-dihydroxy-5-(6-imino-1~{H}-purin-9-yl)tetrahydrofuran-2-yl]methoxy-oxido-phosphoryl]oxy-oxido-phosphoryl] hydrogen phosphate
   44    46     1     0     0
SMALL
USER_CHARGES

@<TRIPOS>ATOM
      1 PG         -0.2787    5.0847   -4.1491 P.3       1 ATP         1.5257
      2 O1G         0.3419    6.4384   -4.4130 O.co2     1 ATP        -0.8737
      3 O2G        -1.7387    4.8271   -4.4490 O.co2     1 ATP        -0.8737
      4 O3G         0.6147    3.9477   -4.9073 O.3       1 ATP        -0.7971
      5 PB          1.4493    4.5708   -1.8053 P.3       1 ATP         1.6824
      6 O1B         2.2849    3.4649   -2.4104 O.co2     1 ATP        -0.8925
      7 O2B         1.9981    5.9716   -1.6495 O.co2     1 ATP        -0.8925
      8 O3B         0.0287    4.6512   -2.6059 O.3       1 ATP        -0.8047
      9 PA         -0.1844    4.7788    0.6530 P.3       1 ATP         1.5908
     10 O1A        -1.5385    4.8262   -0.0211 O.co2     1 ATP        -0.8932
     11 O2A         0.4501    6.0373    1.2036 O.co2     1 ATP        -0.8932
     12 O3A         0.8819    4.0669   -0.3600 O.3       1 ATP        -0.8088
     13 O5'        -0.2062    3.6557    1.8417 O.3       1 ATP        -0.5646
     14 C5'        -0.8811    2.4285    1.6206 C.3       1 ATP         0.2204
     15 C4'        -0.1994    1.3333    2.4288 C.3       1 ATP         0.0965
     16 O4'        -1.1285    0.2356    2.5840 O.3       1 ATP        -0.3907
     17 C3'         1.0324    0.7610    1.7344 C.3       1 ATP         0.0763
     18 O3'         1.9175    0.2377    2.7247 O.3       1 ATP        -0.5884
     19 C2'         0.4468   -0.3802    0.9263 C.3       1 ATP         0.0784
     20 O2'         1.3993   -1.3703    0.5961 O.3       1 ATP        -0.6085
     21 C1'        -0.6159   -0.9100    1.8769 C.3       1 ATP         0.2186
     22 N9         -1.7127   -1.6108    1.2130 N.pl3     1 ATP        -0.1699
     23 C8         -2.8662   -1.0361    0.7388 C.ar      1 ATP         0.4438
     24 N7         -3.6774   -1.9166    0.1867 N.2       1 ATP        -0.6280
     25 C5         -3.0159   -3.1045    0.3122 C.ar      1 ATP         0.2109
     26 C6         -3.4377   -4.4169   -0.1199 C.ar      1 ATP         0.6180
     27 N6         -4.5720   -4.5691   -0.7080 N.2       1 ATP        -0.8319
     28 N1         -2.4600   -5.3463    0.2071 N.pl3     1 ATP        -0.8664
     29 C2         -1.2595   -5.0554    0.8515 C.ar      1 ATP         0.5952
     30 N3         -0.8555   -3.8803    1.2516 N.2       1 ATP        -0.5599
     31 C4         -1.7946   -2.9457    0.9448 C.ar      1 ATP         0.0076
     32 HOG3        1.5593    3.8543   -4.6596 H         1 ATP         0.4101
     33 H5'1       -1.9256    2.5380    1.9293 H         1 ATP         0.0364
     34 H5'2       -0.8474    2.1930    0.5521 H         1 ATP         0.0364
     35 H4'         0.0403    1.7078    3.4343 H         1 ATP         0.0945
     36 H3'         1.5907    1.4859    1.1353 H         1 ATP         0.0703
     37 HO3'        2.6839   -0.1150    2.2479 H         1 ATP         0.4099
     38 H2'        -0.0017    0.0018    0.0005 H         1 ATP         0.0676
     39 HO2'        2.0953   -0.9375    0.0709 H         1 ATP         0.4291
     40 H1'        -0.1998   -1.6319    2.6178 H         1 ATP         0.0950
     41 H8         -3.0558    0.0252    0.8256 H         1 ATP         0.1135
     42 HN62       -4.7047   -5.5592   -0.9421 H         1 ATP         0.3588
     43 H2         -0.6372   -5.9505    1.0077 H         1 ATP         0.0302
     44 H44        -2.6338   -6.3155   -0.0469 H         1 ATP         0.4215
@<TRIPOS>BOND
     1    1    2 2
     2    1    3 1
     3    1    4 1
     4    1    8 1
     5    4   32 1
     6    5    6 2
     7    5    7 1
     8    5    8 1
     9    5   12 1
    10    9   10 2
    11    9   11 1
    12    9   12 1
    13    9   13 1
    14   13   14 1
    15   14   15 1
    16   14   33 1
    17   14   34 1
    18   15   16 1
    19   15   17 1
    20   15   35 1
    21   16   21 1
    22   17   18 1
    23   17   19 1
    24   17   36 1
    25   18   37 1
    26   19   20 1
    27   19   21 1
    28   19   38 1
    29   20   39 1
    30   21   22 1
    31   21   40 1
    32   22   23 ar
    33   22   31 ar
    34   23   24 ar
    35   23   41 1
    36   24   25 ar
    37   25   26 ar
    38   25   31 ar
    39   26   27 2
    40   26   28 ar
    41   27   42 1
    42   28   29 ar
    43   28   44 1
    44   29   30 ar
    45   29   43 1
    46   30   31 ar
@<TRIPOS>SUBSTRUCTURE
     1 ATP         1 GROUP 0 A     ****
@<TRIPOS>MOLECULE
[[[3,4-dihydroxy-5-(6-imino-1~{H}-purin-9-yl)tetrahydrofuran-2-yl]methoxy-oxido-phosphoryl]oxy-oxido-phosphoryl] hydrogen phosphate
   44    46     1     0     0
SMALL
USER_CHARGES

@<TRIPOS>ATOM
      1 PG         -7.1327    5.6220    0.8060 P.3       1 ATP         1.5257
      2 O1G        -7.5249    6.2400    2.1295 O.co2     1 ATP        -0.8737
      3 O2G        -8.0948    4.7358    0.0465 O.co2     1 ATP        -0.8737
      4 O3G        -6.6252    6.8108   -0.1915 O.3       1 ATP        -0.7971
      5 PB         -4.7646    4.1198   -0.1315 P.3       1 ATP         1.6824
      6 O1B        -5.4970    2.9262   -0.7027 O.co2     1 ATP        -0.8925
      7 O2B        -4.1908    5.1911   -1.0318 O.co2     1 ATP        -0.8925
      8 O3B        -5.7165    4.8314    0.9879 O.3       1 ATP        -0.8047
      9 PA         -2.5926    4.4187    1.8556 P.3       1 ATP         1.5908
     10 O1A        -3.4218    5.0536    2.9508 O.co2     1 ATP        -0.8932
     11 O2A        -1.6631    5.2564    1.0048 O.co2     1 ATP        -0.8932
     12 O3A        -3.5855    3.5838    0.8621 O.3       1 ATP        -0.8088
     13 O5'        -1.7336    3.1724    2.4750 O.3       1 ATP        -0.5646
     14 C5'        -0.8811    2.4285    1.6206 C.3       1 ATP         0.2204
     15 C4'        -0.1994    1.3333    2.4288 C.3       1 ATP         0.0965
     16 O4'        -1.1285    0.2356    2.5840 O.3       1 ATP        -0.3907
     17 C3'         1.0324    0.7610    1.7344 C.3       1 ATP         0.0763
     18 O3'         1.9175    0.2377    2.7247 O.3       1 ATP        -0.5884
     19 C2'         0.4468   -0.3802    0.9263 C.3       1 ATP         0.0784
     20 O2'         1.3993   -1.3703    0.5961 O.3       1 ATP        -0.6085
     21 C1'        -0.6159   -0.9100    1.8769 C.3       1 ATP         0.2186
     22 N9         -1.7127   -1.6108    1.2130 N.pl3     1 ATP        -0.1699
     23 C8         -1.5982   -2.7455    0.4481 C.ar      1 ATP         0.4438
     24 N7         -2.7593   -3.1533   -0.0249 N.2       1 ATP        -0.6280
     25 C5         -3.6547   -2.2420    0.4573 C.ar      1 ATP         0.2109
     26 C6         -5.0842   -2.1942    0.2543 C.ar      1 ATP         0.6180
     27 N6         -5.6648   -3.0919   -0.4618 N.2       1 ATP        -0.8319
     28 N1         -5.6087   -1.0978    0.9248 N.pl3     1 ATP        -0.8664
     29 C2         -4.8689   -0.1873    1.6760 C.ar      1 ATP         0.5952
     30 N3         -3.5787   -0.2081    1.8745 N.2       1 ATP        -0.5599
     31 C4         -3.0344   -1.2737    1.2284 C.ar      1 ATP         0.0076
     32 HOG3       -6.3340    6.5686   -1.0963 H         1 ATP         0.4101
     33 H5'1       -1.4800    1.9927    0.8146 H         1 ATP         0.0364
     34 H5'2       -0.1367    3.1040    1.1872 H         1 ATP         0.0364
     35 H4'         0.0403    1.7078    3.4343 H         1 ATP         0.0945
     36 H3'         1.5907    1.4859    1.1353 H         1 ATP         0.0703
     37 HO3'        2.1521    0.9800    3.3017 H         1 ATP         0.4099
     38 H2'        -0.0017    0.0018    0.0005 H         1 ATP         0.0676
     39 HO2'        2.0953   -0.9375    0.0709 H         1 ATP         0.4291
     40 H1'        -0.1998   -1.6319    2.6178 H         1 ATP         0.0950
     41 H8         -0.6448   -3.2254    0.2735 H         1 ATP         0.1135
     42 HN62       -6.6723   -2.9015   -0.4966 H         1 ATP         0.3588
     43 H2         -5.4961    0.6026    2.1183 H         1 ATP         0.0302
     44 H44        -6.6130   -0.9504    0.8642 H         1 ATP         0.4215
@<TRIPOS>BOND
     1    1    2 2
     2    1    3 1
     3    1    4 1
     4    1    8 1
     5    4   32 1
     6    5    6 2
     7    5    7 1
     8    5    8 1
     9    5   12 1
    10    9   10 2
    11    9   11 1
    12    9   12 1
    13    9   13 1
    14   13   14 1
    15   14   15 1
    16   14   33 1
    17   14   34 1
    18   15   16 1
    19   15   17 1
    20   15   35 1
    21   16   21 1
    22   17   18 1
    23   17   19 1
    24   17   36 1
    25   18   37 1
    26   19   20 1
    27   19   21 1
    28   19   38 1
    29   20   39 1
    30   21   22 1
    31   21   40 1
    32   22   23 ar
    33   22   31 ar
    34   23   24 ar
    35   23   41 1
    36   24   25 ar
    37   25   26 ar
    38   25   31 ar
    39   26   27 2
    40   26   28 ar
    41   27   42 1
    42   28   29 ar
    43   28   44 1
    44   29   30 ar
    45   29   43 1
    46   30   31 ar
@<TRIPOS>SUBSTRUCTURE
     1 ATP         1 GROUP 0 A     ****
@<TRIPOS>MOLECULE
[[[3,4-dihydroxy-5-(6-imino-1~{H}-purin-9-yl)tetrahydrofuran-2-yl]methoxy-oxido-phosphoryl]oxy-oxido-phosphoryl] hydrogen phosphate
   44    46     1     0     0
SMALL
USER_CHARGES

@<TRIPOS>ATOM
      1 PG          8.7122    1.3218    2.2153 P.3       1 ATP         1.5257
      2 O1G         7.2784    1.5683    2.6286 O.co2     1 ATP        -0.8737
      3 O2G         9.8122    2.2797    2.6155 O.co2     1 ATP        -0.8737
      4 O3G         9.1369   -0.1822    2.6883 O.3       1 ATP        -0.7971
      5 PB          8.4676    2.1478   -0.6133 P.3       1 ATP         1.6824
      6 O1B         9.3107    3.3857   -0.4027 O.co2     1 ATP        -0.8925
      7 O2B         8.4952    1.3950   -1.9248 O.co2     1 ATP        -0.8925
      8 O3B         8.7682    1.0972    0.5997 O.3       1 ATP        -0.8047
      9 PA          5.8655    3.5044   -0.9928 P.3       1 ATP         1.5908
     10 O1A         5.5610    2.9521   -2.3685 O.co2     1 ATP        -0.8932
     11 O2A         6.3585    4.9247   -0.8212 O.co2     1 ATP        -0.8932
     12 O3A         6.9171    2.5019   -0.2453 O.3       1 ATP        -0.8088
     13 O5'         4.5670    3.2937   -0.0211 O.3       1 ATP        -0.5646
     14 C5'         4.0922    1.9801    0.2227 C.3       1 ATP         0.2204
     15 C4'         2.5944    2.0310    0.4653 C.3       1 ATP         0.0965
     16 O4'         1.9327    2.5740   -0.6889 O.3       1 ATP        -0.3907
     17 C3'         1.9685    0.6634    0.6767 C.3       1 ATP         0.0763
     18 O3'         2.1425    0.1975    1.9977 O.3       1 ATP        -0.5884
     19 C2'         0.5176    0.9128    0.3099 C.3       1 ATP         0.0784
     20 O2'        -0.2103    1.4454    1.4152 O.3       1 ATP        -0.6085
     21 C1'         0.6219    1.9765   -0.7844 C.3       1 ATP         0.2186
     22 N9          0.4237    1.4496   -2.1357 N.pl3     1 ATP        -0.1699
     23 C8          1.4069    0.9710   -2.9662 C.ar      1 ATP         0.4438
     24 N7          0.9316    0.5623   -4.1260 N.2       1 ATP        -0.6280
     25 C5         -0.4120    0.7884   -4.0344 C.ar      1 ATP         0.2109
     26 C6         -1.4353    0.5283   -5.0204 C.ar      1 ATP         0.6180
     27 N6         -1.1199    0.0176   -6.1586 N.2       1 ATP        -0.8319
     28 N1         -2.6704    0.9095   -4.5147 N.pl3     1 ATP        -0.8664
     29 C2         -2.8863    1.4571   -3.2520 C.ar      1 ATP         0.5952
     30 N3         -1.9805    1.7017   -2.3442 N.2       1 ATP        -0.5599
     31 C4         -0.7561    1.3381   -2.8112 C.ar      1 ATP         0.0076
     32 HOG3       10.0458   -0.4944    2.4912 H         1 ATP         0.4101
     33 H5'1        4.3179    1.3548   -0.6470 H         1 ATP         0.0364
     34 H5'2        4.6083    1.5737    1.0983 H         1 ATP         0.0364
     35 H4'         2.3752    2.7029    1.3156 H         1 ATP         0.0945
     36 H3'         2.4336   -0.1217   -0.0015 H         1 ATP         0.0703
     37 HO3'        1.7160   -0.6716    2.0397 H         1 ATP         0.4099
     38 H2'         0.0316    0.0155   -0.0339 H         1 ATP         0.0676
     39 HO2'       -1.1270    1.5823    1.1180 H         1 ATP         0.4291
     40 H1'        -0.1474    2.7798   -0.6651 H         1 ATP         0.0950
     41 H8          2.4466    0.9468   -2.6694 H         1 ATP         0.1135
     42 HN62       -1.9661   -0.0965   -6.7275 H         1 ATP         0.3588
     43 H2         -3.9481    1.6825   -3.0660 H         1 ATP         0.0302
     44 H44        -3.4814    0.7753   -5.1133 H         1 ATP         0.4215
@<TRIPOS>BOND
     1    1    2 2
     2    1    3 1
     3    1    4 1
     4    1    8 1
     5    4   32 1
     6    5    6 2
     7    5    7 1
     8    5    8 1
     9    5   12 1
    10    9   10 2
    11    9   11 1
    12    9   12 1
    13    9   13 1
    14   13   14 1
    15   14   15 1
    16   14   33 1
    17   14   34 1
    18   15   16 1
    19   15   17 1
    20   15   35 1
    21   16   21 1
    22   17   18 1
    23   17   19 1
    24   17   36 1
    25   18   37 1
    26   19   20 1
    27   19   21 1
    28   19   38 1
    29   20   39 1
    30   21   22 1
    31   21   40 1
    32   22   23 ar
    33   22   31 ar
    34   23   24 ar
    35   23   41 1
    36   24   25 ar
    37   25   26 ar
    38   25   31 ar
    39   26   27 2
    40   26   28 ar
    41   27   42 1
    42   28   29 ar
    43   28   44 1
    44   29   30 ar
    45   29   43 1
    46   30   31 ar
@<TRIPOS>SUBSTRUCTURE
     1 ATP         1 GROUP 0 A     ****
@<TRIPOS>MOLECULE
[[[3,4-dihydroxy-5-(6-imino-1~{H}-purin-9-yl)tetrahydrofuran-2-yl]methoxy-oxido-phosphoryl]oxy-oxido-phosphoryl] hydrogen phosphate
   44    46     1     0     0
SMALL
USER_CHARGES

@<TRIPOS>ATOM
      1 PG          6.1351   -1.7045   -2.3976 P.3       1 ATP         1.5257
      2 O1G         6.9580   -1.1207   -3.5243 O.co2     1 ATP        -0.8737
      3 O2G         4.8415   -1.0532   -1.9615 O.co2     1 ATP        -0.8737
      4 O3G         5.8378   -3.2748   -2.7321 O.3       1 ATP        -0.7971
      5 PB          7.8236   -0.7942   -0.1473 P.3       1 ATP         1.6824
      6 O1B         8.4565   -1.4987    1.0319 O.co2     1 ATP        -0.8925
      7 O2B         8.6281    0.1351   -1.0286 O.co2     1 ATP        -0.8925
      8 O3B         7.0919   -1.9076   -1.0910 O.3       1 ATP        -0.8047
      9 PA          6.3565    1.2771    1.3734 P.3       1 ATP         1.5908
     10 O1A         6.9879    2.4828    0.7118 O.co2     1 ATP        -0.8932
     11 O2A         6.7839    0.8423    2.7584 O.co2     1 ATP        -0.8932
     12 O3A         6.4914   -0.0042    0.3685 O.3       1 ATP        -0.8088
     13 O5'         4.7294    1.4427    1.3696 O.3       1 ATP        -0.5646
     14 C5'         4.0922    1.9801    0.2227 C.3       1 ATP         0.2204
     15 C4'         2.5944    2.0310    0.4653 C.3       1 ATP         0.0965
     16 O4'         1.9327    2.5740   -0.6889 O.3       1 ATP        -0.3907
     17 C3'         1.9685    0.6634    0.6767 C.3       1 ATP         0.0763
     18 O3'         2.1425    0.1975    1.9977 O.3       1 ATP        -0.5884
     19 C2'         0.5176    0.9128    0.3099 C.3       1 ATP         0.0784
     20 O2'        -0.2103    1.4454    1.4152 O.3       1 ATP        -0.6085
     21 C1'         0.6219    1.9765   -0.7844 C.3       1 ATP         0.2186
     22 N9          0.4237    1.4496   -2.1357 N.pl3     1 ATP        -0.1699
     23 C8          1.1891    0.4862   -2.7452 C.ar      1 ATP         0.4438
     24 N7          0.7743    0.2113   -3.9661 N.2       1 ATP        -0.6280
     25 C5         -0.3017    1.0326   -4.1458 C.ar      1 ATP         0.2109
     26 C6         -1.1512    1.1578   -5.3076 C.ar      1 ATP         0.6180
     27 N6         -0.9306    0.4354   -6.3493 N.2       1 ATP        -0.8319
     28 N1         -2.1281    2.1133   -5.0636 N.pl3     1 ATP        -0.8664
     29 C2         -2.2653    2.8370   -3.8811 C.ar      1 ATP         0.5952
     30 N3         -1.5123    2.7429   -2.8189 N.2       1 ATP        -0.5599
     31 C4         -0.5429    1.8121   -3.0273 C.ar      1 ATP         0.0076
     32 HOG3        5.3104   -3.7971   -2.0907 H         1 ATP         0.4101
     33 H5'1        4.4843    2.9854    0.0380 H         1 ATP         0.0364
     34 H5'2        4.3191    1.3446   -0.6392 H         1 ATP         0.0364
     35 H4'         2.3752    2.7029    1.3156 H         1 ATP         0.0945
     36 H3'         2.4336   -0.1217   -0.0015 H         1 ATP         0.0703
     37 HO3'        3.0987    0.1465    2.1461 H         1 ATP         0.4099
     38 H2'         0.0316    0.0155   -0.0339 H         1 ATP         0.0676
     39 HO2'       -0.1608    0.7921    2.1351 H         1 ATP         0.4291
     40 H1'        -0.1474    2.7798   -0.6651 H         1 ATP         0.0950
     41 H8          2.0323    0.0251   -2.2492 H         1 ATP         0.1135
     42 HN62       -1.6261    0.6558   -7.0707 H         1 ATP         0.3588
     43 H2         -3.1123    3.5402   -3.9130 H         1 ATP         0.0302
     44 H44        -2.7975    2.2966   -5.8068 H         1 ATP         0.4215
@<TRIPOS>BOND
     1    1    2 2
     2    1    3 1
     3    1    4 1
     4    1    8 1
     5    4   32 1
     6    5    6 2
     7    5    7 1
     8    5    8 1
     9    5   12 1
    10    9   10 2
    11    9   11 1
    12    9   12 1
    13    9   13 1
    14   13   14 1
    15   14   15 1
    16   14   33 1
    17   14   34 1
    18   15   16 1
    19   15   17 1
    20   15   35 1
    21   16   21 1
    22   17   18 1
    23   17   19 1
    24   17   36 1
    25   18   37 1
    26   19   20 1
    27   19   21 1
    28   19   38 1
    29   20   39 1
    30   21   22 1
    31   21   40 1
    32   22   23 ar
    33   22   31 ar
    34   23   24 ar
    35   23   41 1
    36   24   25 ar
    37   25   26 ar
    38   25   31 ar
    39   26   27 2
    40   26   28 ar
    41   27   42 1
    42   28   29 ar
    43   28   44 1
    44   29   30 ar
    45   29   43 1
    46   30   31 ar
@<TRIPOS>SUBSTRUCTURE
     1 ATP         1 GROUP 0 A     ****
@<TRIPOS>MOLECULE
[[[3,4-dihydroxy-5-(6-imino-1~{H}-purin-9-yl)tetrahydrofuran-2-yl]methoxy-oxido-phosphoryl]oxy-oxido-phosphoryl] hydrogen phosphate
   44    46     1     0     0
SMALL
USER_CHARGES

@<TRIPOS>ATOM
      1 PG         -0.5942    8.8457    0.5396 P.3       1 ATP         1.5257
      2 O1G         0.7782    9.2364    1.0409 O.co2     1 ATP        -0.8737
      3 O2G        -1.7822    9.7616    0.7332 O.co2     1 ATP        -0.8737
      4 O3G        -0.4804    8.4722   -1.0458 O.3       1 ATP        -0.7971
      5 PB         -1.2528    6.8802    2.6483 P.3       1 ATP         1.6824
      6 O1B         0.0307    6.9970    3.4398 O.co2     1 ATP        -0.8925
      7 O2B        -2.5325    7.5254    3.1315 O.co2     1 ATP        -0.8925
      8 O3B        -0.9685    7.3651    1.1155 O.3       1 ATP        -0.8047
      9 PA         -1.9156    4.0918    3.3837 P.3       1 ATP         1.5908
     10 O1A        -3.2735    4.3719    3.9903 O.co2     1 ATP        -0.8932
     11 O2A        -0.7136    3.8310    4.2651 O.co2     1 ATP        -0.8932
     12 O3A        -1.5422    5.3014    2.3507 O.3       1 ATP        -0.8088
     13 O5'        -2.0401    2.8620    2.3128 O.3       1 ATP        -0.5646
     14 C5'        -0.8811    2.4285    1.6206 C.3       1 ATP         0.2204
     15 C4'        -0.1994    1.3333    2.4288 C.3       1 ATP         0.0965
     16 O4'        -1.1285    0.2356    2.5840 O.3       1 ATP        -0.3907
     17 C3'         1.0324    0.7610    1.7344 C.3       1 ATP         0.0763
     18 O3'         1.9175    0.2377    2.7247 O.3       1 ATP        -0.5884
     19 C2'         0.4468   -0.3802    0.9263 C.3       1 ATP         0.0784
     20 O2'         1.3993   -1.3703    0.5961 O.3       1 ATP        -0.6085
     21 C1'        -0.6159   -0.9100    1.8769 C.3       1 ATP         0.2186
     22 N9         -1.7127   -1.6108    1.2130 N.pl3     1 ATP        -0.1699
     23 C8         -2.5485   -1.0808    0.2609 C.ar      1 ATP         0.4438
     24 N7         -3.4476   -1.9486   -0.1593 N.2       1 ATP        -0.6280
     25 C5         -3.1762   -3.0816    0.5530 C.ar      1 ATP         0.2109
     26 C6         -3.8510   -4.3579    0.5006 C.ar      1 ATP         0.6180
     27 N6         -4.8468   -4.5293   -0.2961 N.2       1 ATP        -0.8319
     28 N1         -3.2499   -5.2342    1.3937 N.pl3     1 ATP        -0.8664
     29 C2         -2.1646   -4.9275    2.2116 C.ar      1 ATP         0.5952
     30 N3         -1.5382   -3.7840    2.2778 N.2       1 ATP        -0.5599
     31 C4         -2.1054   -2.9018    1.4120 C.ar      1 ATP         0.0076
     32 HOG3       -1.2936    8.1965   -1.5201 H         1 ATP         0.4101
     33 H5'1       -1.1767    2.0502    0.6368 H         1 ATP         0.0364
     34 H5'2       -0.2080    3.2814    1.4876 H         1 ATP         0.0364
     35 H4'         0.0403    1.7078    3.4343 H         1 ATP         0.0945
     36 H3'         1.5907    1.4859    1.1353 H         1 ATP         0.0703
     37 HO3'        2.6839   -0.1150    2.2479 H         1 ATP         0.4099
     38 H2'        -0.0017    0.0018    0.0005 H         1 ATP         0.0676
     39 HO2'        2.0953   -0.9375    0.0709 H         1 ATP         0.4291
     40 H1'        -0.1998   -1.6319    2.6178 H         1 ATP         0.0950
     41 H8         -2.4515   -0.0599   -0.0829 H         1 ATP         0.1135
     42 HN62       -5.1990   -5.4882   -0.2005 H         1 ATP         0.3588
     43 H2         -1.8555   -5.7783    2.8388 H         1 ATP         0.0302
     44 H44        -3.6312   -6.1750    1.4526 H         1 ATP         0.4215
@<TRIPOS>BOND
     1    1    2 2
     2    1    3 1
     3    1    4 1
     4    1    8 1
     5    4   32 1
     6    5    6 2
     7    5    7 1
     8    5    8 1
     9    5   12 1
    10    9   10 2
    11    9   11 1
    12    9   12 1
    13    9   13 1
    14   13   14 1
    15   14   15 1
    16   14   33 1
    17   14   34 1
    18   15   16 1
    19   15   17 1
    20   15   35 1
    21   16   21 1
    22   17   18 1
    23   17   19 1
    24   17   36 1
    25   18   37 1
    26   19   20 1
    27   19   21 1
    28   19   38 1
    29   20   39 1
    30   21   22 1
    31   21   40 1
    32   22   23 ar
    33   22   31 ar
    34   23   24 ar
    35   23   41 1
    36   24   25 ar
    37   25   26 ar
    38   25   31 ar
    39   26   27 2
    40   26   28 ar
    41   27   42 1
    42   28   29 ar
    43   28   44 1
    44   29   30 ar
    45   29   43 1
    46   30   31 ar
@<TRIPOS>SUBSTRUCTURE
     1 ATP         1 GROUP 0 A     ****
@<TRIPOS>MOLECULE
[[[3,4-dihydroxy-5-(6-imino-1~{H}-purin-9-yl)tetrahydrofuran-2-yl]methoxy-oxido-phosphoryl]oxy-oxido-phosphoryl] hydrogen phosphate
   44    46     1     0     0
SMALL
USER_CHARGES

@<TRIPOS>ATOM
      1 PG          7.7515    1.5454   -4.4025 P.3       1 ATP         1.5257
      2 O1G         8.4961    1.1904   -3.1349 O.co2     1 ATP        -0.8737
      3 O2G         8.2466    2.6479   -5.3120 O.co2     1 ATP        -0.8737
      4 O3G         7.5611    0.1879   -5.2896 O.3       1 ATP        -0.7971
      5 PB          5.5130    3.0237   -3.1585 P.3       1 ATP         1.6824
      6 O1B         5.9854    4.3510   -3.7085 O.co2     1 ATP        -0.8925
      7 O2B         4.0402    2.7287   -2.9813 O.co2     1 ATP        -0.8925
      8 O3B         6.1850    1.8236   -4.0383 O.3       1 ATP        -0.8047
      9 PA          6.1593    3.5241   -0.3148 P.3       1 ATP         1.5908
     10 O1A         6.4223    4.9968   -0.5434 O.co2     1 ATP        -0.8932
     11 O2A         6.9473    2.7489    0.7186 O.co2     1 ATP        -0.8932
     12 O3A         6.2776    2.7414   -1.7442 O.3       1 ATP        -0.8088
     13 O5'         4.5670    3.2937   -0.0211 O.3       1 ATP        -0.5646
     14 C5'         4.0922    1.9801    0.2227 C.3       1 ATP         0.2204
     15 C4'         2.5944    2.0310    0.4653 C.3       1 ATP         0.0965
     16 O4'         1.9327    2.5740   -0.6889 O.3       1 ATP        -0.3907
     17 C3'         1.9685    0.6634    0.6767 C.3       1 ATP         0.0763
     18 O3'         2.1425    0.1975    1.9977 O.3       1 ATP        -0.5884
     19 C2'         0.5176    0.9128    0.3099 C.3       1 ATP         0.0784
     20 O2'        -0.2103    1.4454    1.4152 O.3       1 ATP        -0.6085
     21 C1'         0.6219    1.9765   -0.7844 C.3       1 ATP         0.2186
     22 N9          0.4237    1.4496   -2.1357 N.pl3     1 ATP        -0.1699
     23 C8          1.1891    0.4862   -2.7452 C.ar      1 ATP         0.4438
     24 N7          0.7743    0.2113   -3.9661 N.2       1 ATP        -0.6280
     25 C5         -0.3017    1.0326   -4.1458 C.ar      1 ATP         0.2109
     26 C6         -1.1512    1.1578   -5.3076 C.ar      1 ATP         0.6180
     27 N6         -0.9306    0.4354   -6.3493 N.2       1 ATP        -0.8319
     28 N1         -2.1281    2.1133   -5.0636 N.pl3     1 ATP        -0.8664
     29 C2         -2.2653    2.8370   -3.8811 C.ar      1 ATP         0.5952
     30 N3         -1.5123    2.7429   -2.8189 N.2       1 ATP        -0.5599
     31 C4         -0.5429    1.8121   -3.0273 C.ar      1 ATP         0.0076
     32 HOG3        7.0924    0.2536   -6.1489 H         1 ATP         0.4101
     33 H5'1        4.3179    1.3548   -0.6470 H         1 ATP         0.0364
     34 H5'2        4.6083    1.5737    1.0983 H         1 ATP         0.0364
     35 H4'         2.3752    2.7029    1.3156 H         1 ATP         0.0945
     36 H3'         2.4336   -0.1217   -0.0015 H         1 ATP         0.0703
     37 HO3'        1.7160   -0.6716    2.0397 H         1 ATP         0.4099
     38 H2'         0.0316    0.0155   -0.0339 H         1 ATP         0.0676
     39 HO2'       -0.1608    0.7921    2.1351 H         1 ATP         0.4291
     40 H1'        -0.1474    2.7798   -0.6651 H         1 ATP         0.0950
     41 H8          2.0323    0.0251   -2.2492 H         1 ATP         0.1135
     42 HN62       -1.6261    0.6558   -7.0707 H         1 ATP         0.3588
     43 H2         -3.1123    3.5402   -3.9130 H         1 ATP         0.0302
     44 H44        -2.7975    2.2966   -5.8068 H         1 ATP         0.4215
@<TRIPOS>BOND
     1    1    2 2
     2    1    3 1
     3    1    4 1
     4    1    8 1
     5    4   32 1
     6    5    6 2
     7    5    7 1
     8    5    8 1
     9    5   12 1
    10    9   10 2
    11    9   11 1
    12    9   12 1
    13    9   13 1
    14   13   14 1
    15   14   15 1
    16   14   33 1
    17   14   34 1
    18   15   16 1
    19   15   17 1
    20   15   35 1
    21   16   21 1
    22   17   18 1
    23   17   19 1
    24   17   36 1
    25   18   37 1
    26   19   20 1
    27   19   21 1
    28   19   38 1
    29   20   39 1
    30   21   22 1
    31   21   40 1
    32   22   23 ar
    33   22   31 ar
    34   23   24 ar
    35   23   41 1
    36   24   25 ar
    37   25   26 ar
    38   25   31 ar
    39   26   27 2
    40   26   28 ar
    41   27   42 1
    42   28   29 ar
    43   28   44 1
    44   29   30 ar
    45   29   43 1
    46   30   31 ar
@<TRIPOS>SUBSTRUCTURE
     1 ATP         1 GROUP 0 A     ****
@<TRIPOS>MOLECULE
[[[3,4-dihydroxy-5-(6-imino-1~{H}-purin-9-yl)tetrahydrofuran-2-yl]methoxy-oxido-phosphoryl]oxy-oxido-phosphoryl] hydrogen phosphate
   44    46     1     0     0
SMALL
USER_CHARGES

@<TRIPOS>ATOM
      1 PG         -4.1892    7.2974    3.8918 P.3       1 ATP         1.5257
      2 O1G        -5.6256    7.0161    3.5107 O.co2     1 ATP        -0.8737
      3 O2G        -3.6486    8.7099    3.8963 O.co2     1 ATP        -0.8737
      4 O3G        -3.8992    6.6266    5.3519 O.3       1 ATP        -0.7971
      5 PB         -2.9172    6.3868    1.3826 P.3       1 ATP         1.6824
      6 O1B        -4.1783    5.9765    0.6554 O.co2     1 ATP        -0.8925
      7 O2B        -2.2004    7.6743    1.0422 O.co2     1 ATP        -0.8925
      8 O3B        -3.2064    6.3577    2.9892 O.3       1 ATP        -0.8047
      9 PA         -0.3962    4.9846    2.0409 P.3       1 ATP         1.5908
     10 O1A        -0.6131    4.8935    3.5359 O.co2     1 ATP        -0.8932
     11 O2A         0.5545    6.0074    1.4581 O.co2     1 ATP        -0.8932
     12 O3A        -1.8470    5.1563    1.3092 O.3       1 ATP        -0.8088
     13 O5'         0.0178    3.5131    1.4595 O.3       1 ATP        -0.5646
     14 C5'        -0.8811    2.4285    1.6206 C.3       1 ATP         0.2204
     15 C4'        -0.1994    1.3333    2.4288 C.3       1 ATP         0.0965
     16 O4'        -1.1285    0.2356    2.5840 O.3       1 ATP        -0.3907
     17 C3'         1.0324    0.7610    1.7344 C.3       1 ATP         0.0763
     18 O3'         1.9175    0.2377    2.7247 O.3       1 ATP        -0.5884
     19 C2'         0.4468   -0.3802    0.9263 C.3       1 ATP         0.0784
     20 O2'         1.3993   -1.3703    0.5961 O.3       1 ATP        -0.6085
     21 C1'        -0.6159   -0.9100    1.8769 C.3       1 ATP         0.2186
     22 N9         -1.7127   -1.6108    1.2130 N.pl3     1 ATP        -0.1699
     23 C8         -1.7690   -2.9583    0.9549 C.ar      1 ATP         0.4438
     24 N7         -2.8827   -3.3076    0.3418 N.2       1 ATP        -0.6280
     25 C5         -3.5683   -2.1351    0.2017 C.ar      1 ATP         0.2109
     26 C6         -4.8617   -1.9185   -0.4044 C.ar      1 ATP         0.6180
     27 N6         -5.5166   -2.9094   -0.8993 N.2       1 ATP        -0.8319
     28 N1         -5.1837   -0.5701   -0.3344 N.pl3     1 ATP        -0.8664
     29 C2         -4.3821    0.4180    0.2330 C.ar      1 ATP         0.5952
     30 N3         -3.2117    0.2488    0.7860 N.2       1 ATP        -0.5599
     31 C4         -2.8672   -1.0657    0.7327 C.ar      1 ATP         0.0076
     32 HOG3       -3.0035    6.7228    5.7403 H         1 ATP         0.4101
     33 H5'1       -1.7771    2.7849    2.1387 H         1 ATP         0.0364
     34 H5'2       -1.1654    2.0541    0.6320 H         1 ATP         0.0364
     35 H4'         0.0403    1.7078    3.4343 H         1 ATP         0.0945
     36 H3'         1.5907    1.4859    1.1353 H         1 ATP         0.0703
     37 HO3'        2.6839   -0.1150    2.2479 H         1 ATP         0.4099
     38 H2'        -0.0017    0.0018    0.0005 H         1 ATP         0.0676
     39 HO2'        2.0953   -0.9375    0.0709 H         1 ATP         0.4291
     40 H1'        -0.1998   -1.6319    2.6178 H         1 ATP         0.0950
     41 H8         -0.9697   -3.6300    1.2371 H         1 ATP         0.1135
     42 HN62       -6.4060   -2.5723   -1.2840 H         1 ATP         0.3588
     43 H2         -4.8409    1.4176    0.1757 H         1 ATP         0.0302
     44 H44        -6.0768   -0.2826   -0.7263 H         1 ATP         0.4215
@<TRIPOS>BOND
     1    1    2 2
     2    1    3 1
     3    1    4 1
     4    1    8 1
     5    4   32 1
     6    5    6 2
     7    5    7 1
     8    5    8 1
     9    5   12 1
    10    9   10 2
    11    9   11 1
    12    9   12 1
    13    9   13 1
    14   13   14 1
    15   14   15 1
    16   14   33 1
    17   14   34 1
    18   15   16 1
    19   15   17 1
    20   15   35 1
    21   16   21 1
    22   17   18 1
    23   17   19 1
    24   17   36 1
    25   18   37 1
    26   19   20 1
    27   19   21 1
    28   19   38 1
    29   20   39 1
    30   21   22 1
    31   21   40 1
    32   22   23 ar
    33   22   31 ar
    34   23   24 ar
    35   23   41 1
    36   24   25 ar
    37   25   26 ar
    38   25   31 ar
    39   26   27 2
    40   26   28 ar
    41   27   42 1
    42   28   29 ar
    43   28   44 1
    44   29   30 ar
    45   29   43 1
    46   30   31 ar
@<TRIPOS>SUBSTRUCTURE
     1 ATP         1 GROUP 0 A     ****
@<TRIPOS>MOLECULE
[[[3,4-dihydroxy-5-(6-imino-1~{H}-purin-9-yl)tetrahydrofuran-2-yl]methoxy-oxido-phosphoryl]oxy-oxido-phosphoryl] hydrogen phosphate
   44    46     1     0     0
SMALL
USER_CHARGES

@<TRIPOS>ATOM
      1 PG          4.8825   -4.4880   -1.0475 P.3       1 ATP         1.5257
      2 O1G         5.8308   -4.5899   -2.2214 O.co2     1 ATP        -0.8737
      3 O2G         3.4264   -4.8719   -1.1891 O.co2     1 ATP        -0.8737
      4 O3G         5.5181   -5.3186    0.2063 O.3       1 ATP        -0.7971
      5 PB          6.2777   -2.1382    0.0817 P.3       1 ATP         1.6824
      6 O1B         6.8550   -2.8158    1.3044 O.co2     1 ATP        -0.8925
      7 O2B         7.1409   -1.8210   -1.1190 O.co2     1 ATP        -0.8925
      8 O3B         4.9745   -2.9845   -0.4193 O.3       1 ATP        -0.8047
      9 PA          6.1203    0.6016    1.1881 P.3       1 ATP         1.5908
     10 O1A         6.9867    1.2778    0.1478 O.co2     1 ATP        -0.8932
     11 O2A         6.6660    0.2884    2.5643 O.co2     1 ATP        -0.8932
     12 O3A         5.5123   -0.7749    0.5513 O.3       1 ATP        -0.8088
     13 O5'         4.7294    1.4427    1.3696 O.3       1 ATP        -0.5646
     14 C5'         4.0922    1.9801    0.2227 C.3       1 ATP         0.2204
     15 C4'         2.5944    2.0310    0.4653 C.3       1 ATP         0.0965
     16 O4'         1.9327    2.5740   -0.6889 O.3       1 ATP        -0.3907
     17 C3'         1.9685    0.6634    0.6767 C.3       1 ATP         0.0763
     18 O3'         2.1425    0.1975    1.9977 O.3       1 ATP        -0.5884
     19 C2'         0.5176    0.9128    0.3099 C.3       1 ATP         0.0784
     20 O2'        -0.2103    1.4454    1.4152 O.3       1 ATP        -0.6085
     21 C1'         0.6219    1.9765   -0.7844 C.3       1 ATP         0.2186
     22 N9          0.4237    1.4496   -2.1357 N.pl3     1 ATP        -0.1699
     23 C8          1.4069    0.9710   -2.9662 C.ar      1 ATP         0.4438
     24 N7          0.9316    0.5623   -4.1260 N.2       1 ATP        -0.6280
     25 C5         -0.4120    0.7884   -4.0344 C.ar      1 ATP         0.2109
     26 C6         -1.4353    0.5283   -5.0204 C.ar      1 ATP         0.6180
     27 N6         -1.1199    0.0176   -6.1586 N.2       1 ATP        -0.8319
     28 N1         -2.6704    0.9095   -4.5147 N.pl3     1 ATP        -0.8664
     29 C2         -2.8863    1.4571   -3.2520 C.ar      1 ATP         0.5952
     30 N3         -1.9805    1.7017   -2.3442 N.2       1 ATP        -0.5599
     31 C4         -0.7561    1.3381   -2.8112 C.ar      1 ATP         0.0076
     32 HOG3        5.0169   -5.3478    1.0490 H         1 ATP         0.4101
     33 H5'1        4.4843    2.9854    0.0380 H         1 ATP         0.0364
     34 H5'2        4.3191    1.3446   -0.6392 H         1 ATP         0.0364
     35 H4'         2.3752    2.7029    1.3156 H         1 ATP         0.0945
     36 H3'         2.4336   -0.1217   -0.0015 H         1 ATP         0.0703
     37 HO3'        3.0987    0.1465    2.1461 H         1 ATP         0.4099
     38 H2'         0.0316    0.0155   -0.0339 H         1 ATP         0.0676
     39 HO2'       -1.1270    1.5823    1.1180 H         1 ATP         0.4291
     40 H1'        -0.1474    2.7798   -0.6651 H         1 ATP         0.0950
     41 H8          2.4466    0.9468   -2.6694 H         1 ATP         0.1135
     42 HN62       -1.9661   -0.0965   -6.7275 H         1 ATP         0.3588
     43 H2         -3.9481    1.6825   -3.0660 H         1 ATP         0.0302
     44 H44        -3.4814    0.7753   -5.1133 H         1 ATP         0.4215
@<TRIPOS>BOND
     1    1    2 2
     2    1    3 1
     3    1    4 1
     4    1    8 1
     5    4   32 1
     6    5    6 2
     7    5    7 1
     8    5    8 1
     9    5   12 1
    10    9   10 2
    11    9   11 1
    12    9   12 1
    13    9   13 1
    14   13   14 1
    15   14   15 1
    16   14   33 1
    17   14   34 1
    18   15   16 1
    19   15   17 1
    20   15   35 1
    21   16   21 1
    22   17   18 1
    23   17   19 1
    24   17   36 1
    25   18   37 1
    26   19   20 1
    27   19   21 1
    28   19   38 1
    29   20   39 1
    30   21   22 1
    31   21   40 1
    32   22   23 ar
    33   22   31 ar
    34   23   24 ar
    35   23   41 1
    36   24   25 ar
    37   25   26 ar
    38   25   31 ar
    39   26   27 2
    40   26   28 ar
    41   27   42 1
    42   28   29 ar
    43   28   44 1
    44   29   30 ar
    45   29   43 1
    46   30   31 ar
@<TRIPOS>SUBSTRUCTURE
     1 ATP         1 GROUP 0 A     ****
@<TRIPOS>MOLECULE
[[[3,4-dihydroxy-5-(6-imino-1~{H}-purin-9-yl)tetrahydrofuran-2-yl]methoxy-oxido-phosphoryl]oxy-oxido-phosphoryl] hydrogen phosphate
   44    46     1     0     0
SMALL
USER_CHARGES

@<TRIPOS>ATOM
      1 PG         -6.5813    5.1469    1.7907 P.3       1 ATP         1.5257
      2 O1G        -7.7626    4.6026    1.0189 O.co2     1 ATP        -0.8737
      3 O2G        -6.3062    6.6333    1.8445 O.co2     1 ATP        -0.8737
      4 O3G        -6.6534    4.5774    3.3192 O.3       1 ATP        -0.7971
      5 PB         -4.4633    4.4146   -0.1383 P.3       1 ATP         1.6824
      6 O1B        -5.3521    3.7658   -1.1759 O.co2     1 ATP        -0.8925
      7 O2B        -3.8958    5.8006   -0.3492 O.co2     1 ATP        -0.8925
      8 O3B        -5.2278    4.3758    1.3038 O.3       1 ATP        -0.8047
      9 PA         -1.9976    2.8867   -0.7222 P.3       1 ATP         1.5908
     10 O1A        -1.1094    4.0707   -1.0379 O.co2     1 ATP        -0.8932
     11 O2A        -2.5599    2.0242   -1.8311 O.co2     1 ATP        -0.8932
     12 O3A        -3.2378    3.3948    0.2123 O.3       1 ATP        -0.8088
     13 O5'        -1.2434    1.9104    0.3515 O.3       1 ATP        -0.5646
     14 C5'        -0.8811    2.4285    1.6206 C.3       1 ATP         0.2204
     15 C4'        -0.1994    1.3333    2.4288 C.3       1 ATP         0.0965
     16 O4'        -1.1285    0.2356    2.5840 O.3       1 ATP        -0.3907
     17 C3'         1.0324    0.7610    1.7344 C.3       1 ATP         0.0763
     18 O3'         1.9175    0.2377    2.7247 O.3       1 ATP        -0.5884
     19 C2'         0.4468   -0.3802    0.9263 C.3       1 ATP         0.0784
     20 O2'         1.3993   -1.3703    0.5961 O.3       1 ATP        -0.6085
     21 C1'        -0.6159   -0.9100    1.8769 C.3       1 ATP         0.2186
     22 N9         -1.7127   -1.6108    1.2130 N.pl3     1 ATP        -0.1699
     23 C8         -2.8662   -1.0361    0.7388 C.ar      1 ATP         0.4438
     24 N7         -3.6774   -1.9166    0.1867 N.2       1 ATP        -0.6280
     25 C5         -3.0159   -3.1045    0.3122 C.ar      1 ATP         0.2109
     26 C6         -3.4377   -4.4169   -0.1199 C.ar      1 ATP         0.6180
     27 N6         -4.5720   -4.5691   -0.7080 N.2       1 ATP        -0.8319
     28 N1         -2.4600   -5.3463    0.2071 N.pl3     1 ATP        -0.8664
     29 C2         -1.2595   -5.0554    0.8515 C.ar      1 ATP         0.5952
     30 N3         -0.8555   -3.8803    1.2516 N.2       1 ATP        -0.5599
     31 C4         -1.7946   -2.9457    0.9448 C.ar      1 ATP         0.0076
     32 HOG3       -5.9506    4.8428    3.9500 H         1 ATP         0.4101
     33 H5'1       -0.2033    3.2760    1.4769 H         1 ATP         0.0364
     34 H5'2       -1.7841    2.7762    2.1323 H         1 ATP         0.0364
     35 H4'         0.0403    1.7078    3.4343 H         1 ATP         0.0945
     36 H3'         1.5907    1.4859    1.1353 H         1 ATP         0.0703
     37 HO3'        2.1521    0.9800    3.3017 H         1 ATP         0.4099
     38 H2'        -0.0017    0.0018    0.0005 H         1 ATP         0.0676
     39 HO2'        1.7495   -1.7243    1.4324 H         1 ATP         0.4291
     40 H1'        -0.1998   -1.6319    2.6178 H         1 ATP         0.0950
     41 H8         -3.0558    0.0252    0.8256 H         1 ATP         0.1135
     42 HN62       -4.7047   -5.5592   -0.9421 H         1 ATP         0.3588
     43 H2         -0.6372   -5.9505    1.0077 H         1 ATP         0.0302
     44 H44        -2.6338   -6.3155   -0.0469 H         1 ATP         0.4215
@<TRIPOS>BOND
     1    1    2 2
     2    1    3 1
     3    1    4 1
     4    1    8 1
     5    4   32 1
     6    5    6 2
     7    5    7 1
     8    5    8 1
     9    5   12 1
    10    9   10 2
    11    9   11 1
    12    9   12 1
    13    9   13 1
    14   13   14 1
    15   14   15 1
    16   14   33 1
    17   14   34 1
    18   15   16 1
    19   15   17 1
    20   15   35 1
    21   16   21 1
    22   17   18 1
    23   17   19 1
    24   17   36 1
    25   18   37 1
    26   19   20 1
    27   19   21 1
    28   19   38 1
    29   20   39 1
    30   21   22 1
    31   21   40 1
    32   22   23 ar
    33   22   31 ar
    34   23   24 ar
    35   23   41 1
    36   24   25 ar
    37   25   26 ar
    38   25   31 ar
    39   26   27 2
    40   26   28 ar
    41   27   42 1
    42   28   29 ar
    43   28   44 1
    44   29   30 ar
    45   29   43 1
    46   30   31 ar
@<TRIPOS>SUBSTRUCTURE
     1 ATP         1 GROUP 0 A     ****
@<TRIPOS>MOLECULE
[[[3,4-dihydroxy-5-(6-imino-1~{H}-purin-9-yl)tetrahydrofuran-2-yl]methoxy-oxido-phosphoryl]oxy-oxido-phosphoryl] hydrogen phosphate
   44    46     1     0     0
SMALL
USER_CHARGES

@<TRIPOS>ATOM
      1 PG          8.7497    1.7543   -5.1731 P.3       1 ATP         1.5257
      2 O1G        10.0898    1.4023   -4.5669 O.co2     1 ATP        -0.8737
      3 O2G         8.6041    2.9381   -6.1032 O.co2     1 ATP        -0.8737
      4 O3G         8.1553    0.4306   -5.9217 O.3       1 ATP        -0.7971
      5 PB          7.5261    2.9743   -2.7735 P.3       1 ATP         1.6824
      6 O1B         8.6968    2.7879   -1.8342 O.co2     1 ATP        -0.8925
      7 O2B         7.2111    4.3262   -3.3740 O.co2     1 ATP        -0.8925
      8 O3B         7.6435    1.8802   -3.9797 O.3       1 ATP        -0.8047
      9 PA          5.8979    0.9309   -1.3848 P.3       1 ATP         1.5908
     10 O1A         6.7868    0.7713   -0.1705 O.co2     1 ATP        -0.8932
     11 O2A         5.9018   -0.1050   -2.4878 O.co2     1 ATP        -0.8932
     12 O3A         6.1804    2.3945   -2.0539 O.3       1 ATP        -0.8088
     13 O5'         4.3516    1.1575   -0.9026 O.3       1 ATP        -0.5646
     14 C5'         4.0922    1.9801    0.2227 C.3       1 ATP         0.2204
     15 C4'         2.5944    2.0310    0.4653 C.3       1 ATP         0.0965
     16 O4'         1.9327    2.5740   -0.6889 O.3       1 ATP        -0.3907
     17 C3'         1.9685    0.6634    0.6767 C.3       1 ATP         0.0763
     18 O3'         2.1425    0.1975    1.9977 O.3       1 ATP        -0.5884
     19 C2'         0.5176    0.9128    0.3099 C.3       1 ATP         0.0784
     20 O2'        -0.2103    1.4454    1.4152 O.3       1 ATP        -0.6085
     21 C1'         0.6219    1.9765   -0.7844 C.3       1 ATP         0.2186
     22 N9          0.4237    1.4496   -2.1357 N.pl3     1 ATP        -0.1699
     23 C8          1.4069    0.9710   -2.9662 C.ar      1 ATP         0.4438
     24 N7          0.9316    0.5623   -4.1260 N.2       1 ATP        -0.6280
     25 C5         -0.4120    0.7884   -4.0344 C.ar      1 ATP         0.2109
     26 C6         -1.4353    0.5283   -5.0204 C.ar      1 ATP         0.6180
     27 N6         -1.1199    0.0176   -6.1586 N.2       1 ATP        -0.8319
     28 N1         -2.6704    0.9095   -4.5147 N.pl3     1 ATP        -0.8664
     29 C2         -2.8863    1.4571   -3.2520 C.ar      1 ATP         0.5952
     30 N3         -1.9805    1.7017   -2.3442 N.2       1 ATP        -0.5599
     31 C4         -0.7561    1.3381   -2.8112 C.ar      1 ATP         0.0076
     32 HOG3        7.2843    0.4982   -6.3680 H         1 ATP         0.4101
     33 H5'1        4.6069    1.5618    1.0936 H         1 ATP         0.0364
     34 H5'2        4.4824    2.9837    0.0254 H         1 ATP         0.0364
     35 H4'         2.3752    2.7029    1.3156 H         1 ATP         0.0945
     36 H3'         2.4336   -0.1217   -0.0015 H         1 ATP         0.0703
     37 HO3'        1.7160   -0.6716    2.0397 H         1 ATP         0.4099
     38 H2'         0.0316    0.0155   -0.0339 H         1 ATP         0.0676
     39 HO2'       -0.1608    0.7921    2.1351 H         1 ATP         0.4291
     40 H1'        -0.1474    2.7798   -0.6651 H         1 ATP         0.0950
     41 H8          2.4466    0.9468   -2.6694 H         1 ATP         0.1135
     42 HN62       -1.9661   -0.0965   -6.7275 H         1 ATP         0.3588
     43 H2         -3.9481    1.6825   -3.0660 H         1 ATP         0.0302
     44 H44        -3.4814    0.7753   -5.1133 H         1 ATP         0.4215
@<TRIPOS>BOND
     1    1    2 2
     2    1    3 1
     3    1    4 1
     4    1    8 1
     5    4   32 1
     6    5    6 2
     7    5    7 1
     8    5    8 1
     9    5   12 1
    10    9   10 2
    11    9   11 1
    12    9   12 1
    13    9   13 1
    14   13   14 1
    15   14   15 1
    16   14   33 1
    17   14   34 1
    18   15   16 1
    19   15   17 1
    20   15   35 1
    21   16   21 1
    22   17   18 1
    23   17   19 1
    24   17   36 1
    25   18   37 1
    26   19   20 1
    27   19   21 1
    28   19   38 1
    29   20   39 1
    30   21   22 1
    31   21   40 1
    32   22   23 ar
    33   22   31 ar
    34   23   24 ar
    35   23   41 1
    36   24   25 ar
    37   25   26 ar
    38   25   31 ar
    39   26   27 2
    40   26   28 ar
    41   27   42 1
    42   28   29 ar
    43   28   44 1
    44   29   30 ar
    45   29   43 1
    46   30   31 ar
@<TRIPOS>SUBSTRUCTURE
     1 ATP         1 GROUP 0 A     ****
@<TRIPOS>MOLECULE
[[[3,4-dihydroxy-5-(6-imino-1~{H}-purin-9-yl)tetrahydrofuran-2-yl]methoxy-oxido-phosphoryl]oxy-oxido-phosphoryl] hydrogen phosphate
   44    46     1     0     0
SMALL
USER_CHARGES

@<TRIPOS>ATOM
      1 PG          0.9287    7.8389    4.3992 P.3       1 ATP         1.5257
      2 O1G         0.0738    8.5374    5.4329 O.co2     1 ATP        -0.8737
      3 O2G         1.6942    8.6290    3.3611 O.co2     1 ATP        -0.8737
      4 O3G         1.9731    6.8502    5.1722 O.3       1 ATP        -0.7971
      5 PB         -1.2528    6.8802    2.6483 P.3       1 ATP         1.6824
      6 O1B        -2.4101    7.4439    3.4423 O.co2     1 ATP        -0.8925
      7 O2B        -0.7867    7.5378    1.3685 O.co2     1 ATP        -0.8925
      8 O3B         0.0293    6.7055    3.6440 O.3       1 ATP        -0.8047
      9 PA         -1.9156    4.0918    3.3837 P.3       1 ATP         1.5908
     10 O1A        -3.2735    4.3719    3.9903 O.co2     1 ATP        -0.8932
     11 O2A        -0.7136    3.8310    4.2651 O.co2     1 ATP        -0.8932
     12 O3A        -1.5422    5.3014    2.3507 O.3       1 ATP        -0.8088
     13 O5'        -2.0401    2.8620    2.3128 O.3       1 ATP        -0.5646
     14 C5'        -0.8811    2.4285    1.6206 C.3       1 ATP         0.2204
     15 C4'        -0.1994    1.3333    2.4288 C.3       1 ATP         0.0965
     16 O4'        -1.1285    0.2356    2.5840 O.3       1 ATP        -0.3907
     17 C3'         1.0324    0.7610    1.7344 C.3       1 ATP         0.0763
     18 O3'         1.9175    0.2377    2.7247 O.3       1 ATP        -0.5884
     19 C2'         0.4468   -0.3802    0.9263 C.3       1 ATP         0.0784
     20 O2'         1.3993   -1.3703    0.5961 O.3       1 ATP        -0.6085
     21 C1'        -0.6159   -0.9100    1.8769 C.3       1 ATP         0.2186
     22 N9         -1.7127   -1.6108    1.2130 N.pl3     1 ATP        -0.1699
     23 C8         -2.5485   -1.0808    0.2609 C.ar      1 ATP         0.4438
     24 N7         -3.4476   -1.9486   -0.1593 N.2       1 ATP        -0.6280
     25 C5         -3.1762   -3.0816    0.5530 C.ar      1 ATP         0.2109
     26 C6         -3.8510   -4.3579    0.5006 C.ar      1 ATP         0.6180
     27 N6         -4.8468   -4.5293   -0.2961 N.2       1 ATP        -0.8319
     28 N1         -3.2499   -5.2342    1.3937 N.pl3     1 ATP        -0.8664
     29 C2         -2.1646   -4.9275    2.2116 C.ar      1 ATP         0.5952
     30 N3         -1.5382   -3.7840    2.2778 N.2       1 ATP        -0.5599
     31 C4         -2.1054   -2.9018    1.4120 C.ar      1 ATP         0.0076
     32 HOG3        2.6012    6.3223    4.6346 H         1 ATP         0.4101
     33 H5'1       -1.1767    2.0502    0.6368 H         1 ATP         0.0364
     34 H5'2       -0.2080    3.2814    1.4876 H         1 ATP         0.0364
     35 H4'         0.0403    1.7078    3.4343 H         1 ATP         0.0945
     36 H3'         1.5907    1.4859    1.1353 H         1 ATP         0.0703
     37 HO3'        2.6839   -0.1150    2.2479 H         1 ATP         0.4099
     38 H2'        -0.0017    0.0018    0.0005 H         1 ATP         0.0676
     39 HO2'        2.0953   -0.9375    0.0709 H         1 ATP         0.4291
     40 H1'        -0.1998   -1.6319    2.6178 H         1 ATP         0.0950
     41 H8         -2.4515   -0.0599   -0.0829 H         1 ATP         0.1135
     42 HN62       -5.1990   -5.4882   -0.2005 H         1 ATP         0.3588
     43 H2         -1.8555   -5.7783    2.8388 H         1 ATP         0.0302
     44 H44        -3.6312   -6.1750    1.4526 H         1 ATP         0.4215
@<TRIPOS>BOND
     1    1    2 2
     2    1    3 1
     3    1    4 1
     4    1    8 1
     5    4   32 1
     6    5    6 2
     7    5    7 1
     8    5    8 1
     9    5   12 1
    10    9   10 2
    11    9   11 1
    12    9   12 1
    13    9   13 1
    14   13   14 1
    15   14   15 1
    16   14   33 1
    17   14   34 1
    18   15   16 1
    19   15   17 1
    20   15   35 1
    21   16   21 1
    22   17   18 1
    23   17   19 1
    24   17   36 1
    25   18   37 1
    26   19   20 1
    27   19   21 1
    28   19   38 1
    29   20   39 1
    30   21   22 1
    31   21   40 1
    32   22   23 ar
    33   22   31 ar
    34   23   24 ar
    35   23   41 1
    36   24   25 ar
    37   25   26 ar
    38   25   31 ar
    39   26   27 2
    40   26   28 ar
    41   27   42 1
    42   28   29 ar
    43   28   44 1
    44   29   30 ar
    45   29   43 1
    46   30   31 ar
@<TRIPOS>SUBSTRUCTURE
     1 ATP         1 GROUP 0 A     ****
@<TRIPOS>MOLECULE
[[[3,4-dihydroxy-5-(6-imino-1~{H}-purin-9-yl)tetrahydrofuran-2-yl]methoxy-oxido-phosphoryl]oxy-oxido-phosphoryl] hydrogen phosphate
   44    46     1     0     0
SMALL
USER_CHARGES

@<TRIPOS>ATOM
      1 PG          9.1207    4.7317   -3.9111 P.3       1 ATP         1.5257
      2 O1G         9.1183    6.2326   -3.7248 O.co2     1 ATP        -0.8737
      3 O2G         9.0751    4.1200   -5.2937 O.co2     1 ATP        -0.8737
      4 O3G        10.4025    4.1119   -3.1120 O.3       1 ATP        -0.7971
      5 PB          7.5743    2.5160   -2.7100 P.3       1 ATP         1.6824
      6 O1B         7.1131    1.8714   -3.9981 O.co2     1 ATP        -0.8925
      7 O2B         8.6921    1.9132   -1.8887 O.co2     1 ATP        -0.8925
      8 O3B         7.9281    4.0822   -3.0058 O.3       1 ATP        -0.8047
      9 PA          6.1593    3.5241   -0.3148 P.3       1 ATP         1.5908
     10 O1A         6.4223    4.9968   -0.5434 O.co2     1 ATP        -0.8932
     11 O2A         6.9473    2.7489    0.7186 O.co2     1 ATP        -0.8932
     12 O3A         6.2776    2.7414   -1.7442 O.3       1 ATP        -0.8088
     13 O5'         4.5670    3.2937   -0.0211 O.3       1 ATP        -0.5646
     14 C5'         4.0922    1.9801    0.2227 C.3       1 ATP         0.2204
     15 C4'         2.5944    2.0310    0.4653 C.3       1 ATP         0.0965
     16 O4'         1.9327    2.5740   -0.6889 O.3       1 ATP        -0.3907
     17 C3'         1.9685    0.6634    0.6767 C.3       1 ATP         0.0763
     18 O3'         2.1425    0.1975    1.9977 O.3       1 ATP        -0.5884
     19 C2'         0.5176    0.9128    0.3099 C.3       1 ATP         0.0784
     20 O2'        -0.2103    1.4454    1.4152 O.3       1 ATP        -0.6085
     21 C1'         0.6219    1.9765   -0.7844 C.3       1 ATP         0.2186
     22 N9          0.4237    1.4496   -2.1357 N.pl3     1 ATP        -0.1699
     23 C8          1.4069    0.9710   -2.9662 C.ar      1 ATP         0.4438
     24 N7          0.9316    0.5623   -4.1260 N.2       1 ATP        -0.6280
     25 C5         -0.4120    0.7884   -4.0344 C.ar      1 ATP         0.2109
     26 C6         -1.4353    0.5283   -5.0204 C.ar      1 ATP         0.6180
     27 N6         -1.1199    0.0176   -6.1586 N.2       1 ATP        -0.8319
     28 N1         -2.6704    0.9095   -4.5147 N.pl3     1 ATP        -0.8664
     29 C2         -2.8863    1.4571   -3.2520 C.ar      1 ATP         0.5952
     30 N3         -1.9805    1.7017   -2.3442 N.2       1 ATP        -0.5599
     31 C4         -0.7561    1.3381   -2.8112 C.ar      1 ATP         0.0076
     32 HOG3       10.5436    3.1414   -3.1370 H         1 ATP         0.4101
     33 H5'1        4.3179    1.3548   -0.6470 H         1 ATP         0.0364
     34 H5'2        4.6083    1.5737    1.0983 H         1 ATP         0.0364
     35 H4'         2.3752    2.7029    1.3156 H         1 ATP         0.0945
     36 H3'         2.4336   -0.1217   -0.0015 H         1 ATP         0.0703
     37 HO3'        1.7160   -0.6716    2.0397 H         1 ATP         0.4099
     38 H2'         0.0316    0.0155   -0.0339 H         1 ATP         0.0676
     39 HO2'       -0.1608    0.7921    2.1351 H         1 ATP         0.4291
     40 H1'        -0.1474    2.7798   -0.6651 H         1 ATP         0.0950
     41 H8          2.4466    0.9468   -2.6694 H         1 ATP         0.1135
     42 HN62       -1.9661   -0.0965   -6.7275 H         1 ATP         0.3588
     43 H2         -3.9481    1.6825   -3.0660 H         1 ATP         0.0302
     44 H44        -3.4814    0.7753   -5.1133 H         1 ATP         0.4215
@<TRIPOS>BOND
     1    1    2 2
     2    1    3 1
     3    1    4 1
     4    1    8 1
     5    4   32 1
     6    5    6 2
     7    5    7 1
     8    5    8 1
     9    5   12 1
    10    9   10 2
    11    9   11 1
    12    9   12 1
    13    9   13 1
    14   13   14 1
    15   14   15 1
    16   14   33 1
    17   14   34 1
    18   15   16 1
    19   15   17 1
    20   15   35 1
    21   16   21 1
    22   17   18 1
    23   17   19 1
    24   17   36 1
    25   18   37 1
    26   19   20 1
    27   19   21 1
    28   19   38 1
    29   20   39 1
    30   21   22 1
    31   21   40 1
    32   22   23 ar
    33   22   31 ar
    34   23   24 ar
    35   23   41 1
    36   24   25 ar
    37   25   26 ar
    38   25   31 ar
    39   26   27 2
    40   26   28 ar
    41   27   42 1
    42   28   29 ar
    43   28   44 1
    44   29   30 ar
    45   29   43 1
    46   30   31 ar
@<TRIPOS>SUBSTRUCTURE
     1 ATP         1 GROUP 0 A     ****
@<TRIPOS>MOLECULE
[[[3,4-dihydroxy-5-(6-imino-1~{H}-purin-9-yl)tetrahydrofuran-2-yl]methoxy-oxido-phosphoryl]oxy-oxido-phosphoryl] hydrogen phosphate
   44    46     1     0     0
SMALL
USER_CHARGES

@<TRIPOS>ATOM
      1 PG         -3.3006    6.9846    5.3160 P.3       1 ATP         1.5257
      2 O1G        -3.4203    6.5171    6.7494 O.co2     1 ATP        -0.8737
      3 O2G        -4.5295    7.1728    4.4546 O.co2     1 ATP        -0.8737
      4 O3G        -2.4341    8.3683    5.2924 O.3       1 ATP        -0.7971
      5 PB         -0.7129    5.6110    4.9154 P.3       1 ATP         1.6824
      6 O1B         0.1567    6.8447    4.8192 O.co2     1 ATP        -0.8925
      7 O2B        -0.7379    4.7660    6.1696 O.co2     1 ATP        -0.8925
      8 O3B        -2.2456    6.0195    4.5289 O.3       1 ATP        -0.8047
      9 PA         -0.3962    4.9846    2.0409 P.3       1 ATP         1.5908
     10 O1A         0.7136    5.9719    1.7515 O.co2     1 ATP        -0.8932
     11 O2A        -1.8200    5.2757    1.6193 O.co2     1 ATP        -0.8932
     12 O3A        -0.3932    4.6446    3.6391 O.3       1 ATP        -0.8088
     13 O5'         0.0178    3.5131    1.4595 O.3       1 ATP        -0.5646
     14 C5'        -0.8811    2.4285    1.6206 C.3       1 ATP         0.2204
     15 C4'        -0.1994    1.3333    2.4288 C.3       1 ATP         0.0965
     16 O4'        -1.1285    0.2356    2.5840 O.3       1 ATP        -0.3907
     17 C3'         1.0324    0.7610    1.7344 C.3       1 ATP         0.0763
     18 O3'         1.9175    0.2377    2.7247 O.3       1 ATP        -0.5884
     19 C2'         0.4468   -0.3802    0.9263 C.3       1 ATP         0.0784
     20 O2'         1.3993   -1.3703    0.5961 O.3       1 ATP        -0.6085
     21 C1'        -0.6159   -0.9100    1.8769 C.3       1 ATP         0.2186
     22 N9         -1.7127   -1.6108    1.2130 N.pl3     1 ATP        -0.1699
     23 C8         -1.7690   -2.9583    0.9549 C.ar      1 ATP         0.4438
     24 N7         -2.8827   -3.3076    0.3418 N.2       1 ATP        -0.6280
     25 C5         -3.5683   -2.1351    0.2017 C.ar      1 ATP         0.2109
     26 C6         -4.8617   -1.9185   -0.4044 C.ar      1 ATP         0.6180
     27 N6         -5.5166   -2.9094   -0.8993 N.2       1 ATP        -0.8319
     28 N1         -5.1837   -0.5701   -0.3344 N.pl3     1 ATP        -0.8664
     29 C2         -4.3821    0.4180    0.2330 C.ar      1 ATP         0.5952
     30 N3         -3.2117    0.2488    0.7860 N.2       1 ATP        -0.5599
     31 C4         -2.8672   -1.0657    0.7327 C.ar      1 ATP         0.0076
     32 HOG3       -2.2676    8.8002    4.4276 H         1 ATP         0.4101
     33 H5'1       -1.7771    2.7849    2.1387 H         1 ATP         0.0364
     34 H5'2       -1.1654    2.0541    0.6320 H         1 ATP         0.0364
     35 H4'         0.0403    1.7078    3.4343 H         1 ATP         0.0945
     36 H3'         1.5907    1.4859    1.1353 H         1 ATP         0.0703
     37 HO3'        2.6839   -0.1150    2.2479 H         1 ATP         0.4099
     38 H2'        -0.0017    0.0018    0.0005 H         1 ATP         0.0676
     39 HO2'        2.0953   -0.9375    0.0709 H         1 ATP         0.4291
     40 H1'        -0.1998   -1.6319    2.6178 H         1 ATP         0.0950
     41 H8         -0.9697   -3.6300    1.2371 H         1 ATP         0.1135
     42 HN62       -6.4060   -2.5723   -1.2840 H         1 ATP         0.3588
     43 H2         -4.8409    1.4176    0.1757 H         1 ATP         0.0302
     44 H44        -6.0768   -0.2826   -0.7263 H         1 ATP         0.4215
@<TRIPOS>BOND
     1    1    2 2
     2    1    3 1
     3    1    4 1
     4    1    8 1
     5    4   32 1
     6    5    6 2
     7    5    7 1
     8    5    8 1
     9    5   12 1
    10    9   10 2
    11    9   11 1
    12    9   12 1
    13    9   13 1
    14   13   14 1
    15   14   15 1
    16   14   33 1
    17   14   34 1
    18   15   16 1
    19   15   17 1
    20   15   35 1
    21   16   21 1
    22   17   18 1
    23   17   19 1
    24   17   36 1
    25   18   37 1
    26   19   20 1
    27   19   21 1
    28   19   38 1
    29   20   39 1
    30   21   22 1
    31   21   40 1
    32   22   23 ar
    33   22   31 ar
    34   23   24 ar
    35   23   41 1
    36   24   25 ar
    37   25   26 ar
    38   25   31 ar
    39   26   27 2
    40   26   28 ar
    41   27   42 1
    42   28   29 ar
    43   28   44 1
    44   29   30 ar
    45   29   43 1
    46   30   31 ar
@<TRIPOS>SUBSTRUCTURE
     1 ATP         1 GROUP 0 A     ****
@<TRIPOS>MOLECULE
[[[3,4-dihydroxy-5-(6-imino-1~{H}-purin-9-yl)tetrahydrofuran-2-yl]methoxy-oxido-phosphoryl]oxy-oxido-phosphoryl] hydrogen phosphate
   44    46     1     0     0
SMALL
USER_CHARGES

@<TRIPOS>ATOM
      1 PG          6.0639    0.2300   -3.8219 P.3       1 ATP         1.5257
      2 O1G         4.8006    0.3998   -3.0078 O.co2     1 ATP        -0.8737
      3 O2G         7.0618   -0.8572   -3.4906 O.co2     1 ATP        -0.8737
      4 O3G         5.6521    0.0936   -5.3960 O.3       1 ATP        -0.7971
      5 PB          7.5743    2.5160   -2.7100 P.3       1 ATP         1.6824
      6 O1B         8.5587    1.6156   -1.9976 O.co2     1 ATP        -0.8925
      7 O2B         8.0006    3.8547   -3.2702 O.co2     1 ATP        -0.8925
      8 O3B         6.8453    1.6610   -3.8946 O.3       1 ATP        -0.8047
      9 PA          6.1593    3.5241   -0.3148 P.3       1 ATP         1.5908
     10 O1A         6.4223    4.9968   -0.5434 O.co2     1 ATP        -0.8932
     11 O2A         6.9473    2.7489    0.7186 O.co2     1 ATP        -0.8932
     12 O3A         6.2776    2.7414   -1.7442 O.3       1 ATP        -0.8088
     13 O5'         4.5670    3.2937   -0.0211 O.3       1 ATP        -0.5646
     14 C5'         4.0922    1.9801    0.2227 C.3       1 ATP         0.2204
     15 C4'         2.5944    2.0310    0.4653 C.3       1 ATP         0.0965
     16 O4'         1.9327    2.5740   -0.6889 O.3       1 ATP        -0.3907
     17 C3'         1.9685    0.6634    0.6767 C.3       1 ATP         0.0763
     18 O3'         2.1425    0.1975    1.9977 O.3       1 ATP        -0.5884
     19 C2'         0.5176    0.9128    0.3099 C.3       1 ATP         0.0784
     20 O2'        -0.2103    1.4454    1.4152 O.3       1 ATP        -0.6085
     21 C1'         0.6219    1.9765   -0.7844 C.3       1 ATP         0.2186
     22 N9          0.4237    1.4496   -2.1357 N.pl3     1 ATP        -0.1699
     23 C8          1.1891    0.4862   -2.7452 C.ar      1 ATP         0.4438
     24 N7          0.7743    0.2113   -3.9661 N.2       1 ATP        -0.6280
     25 C5         -0.3017    1.0326   -4.1458 C.ar      1 ATP         0.2109
     26 C6         -1.1512    1.1578   -5.3076 C.ar      1 ATP         0.6180
     27 N6         -0.9306    0.4354   -6.3493 N.2       1 ATP        -0.8319
     28 N1         -2.1281    2.1133   -5.0636 N.pl3     1 ATP        -0.8664
     29 C2         -2.2653    2.8370   -3.8811 C.ar      1 ATP         0.5952
     30 N3         -1.5123    2.7429   -2.8189 N.2       1 ATP        -0.5599
     31 C4         -0.5429    1.8121   -3.0273 C.ar      1 ATP         0.0076
     32 HOG3        6.3671   -0.0234   -6.0572 H         1 ATP         0.4101
     33 H5'1        4.3179    1.3548   -0.6470 H         1 ATP         0.0364
     34 H5'2        4.6083    1.5737    1.0983 H         1 ATP         0.0364
     35 H4'         2.3752    2.7029    1.3156 H         1 ATP         0.0945
     36 H3'         2.4336   -0.1217   -0.0015 H         1 ATP         0.0703
     37 HO3'        3.0987    0.1465    2.1461 H         1 ATP         0.4099
     38 H2'         0.0316    0.0155   -0.0339 H         1 ATP         0.0676
     39 HO2'       -0.1608    0.7921    2.1351 H         1 ATP         0.4291
     40 H1'        -0.1474    2.7798   -0.6651 H         1 ATP         0.0950
     41 H8          2.0323    0.0251   -2.2492 H         1 ATP         0.1135
     42 HN62       -1.6261    0.6558   -7.0707 H         1 ATP         0.3588
     43 H2         -3.1123    3.5402   -3.9130 H         1 ATP         0.0302
     44 H44        -2.7975    2.2966   -5.8068 H         1 ATP         0.4215
@<TRIPOS>BOND
     1    1    2 2
     2    1    3 1
     3    1    4 1
     4    1    8 1
     5    4   32 1
     6    5    6 2
     7    5    7 1
     8    5    8 1
     9    5   12 1
    10    9   10 2
    11    9   11 1
    12    9   12 1
    13    9   13 1
    14   13   14 1
    15   14   15 1
    16   14   33 1
    17   14   34 1
    18   15   16 1
    19   15   17 1
    20   15   35 1
    21   16   21 1
    22   17   18 1
    23   17   19 1
    24   17   36 1
    25   18   37 1
    26   19   20 1
    27   19   21 1
    28   19   38 1
    29   20   39 1
    30   21   22 1
    31   21   40 1
    32   22   23 ar
    33   22   31 ar
    34   23   24 ar
    35   23   41 1
    36   24   25 ar
    37   25   26 ar
    38   25   31 ar
    39   26   27 2
    40   26   28 ar
    41   27   42 1
    42   28   29 ar
    43   28   44 1
    44   29   30 ar
    45   29   43 1
    46   30   31 ar
@<TRIPOS>SUBSTRUCTURE
     1 ATP         1 GROUP 0 A     ****
@<TRIPOS>MOLECULE
[[[3,4-dihydroxy-5-(6-imino-1~{H}-purin-9-yl)tetrahydrofuran-2-yl]methoxy-oxido-phosphoryl]oxy-oxido-phosphoryl] hydrogen phosphate
   44    46     1     0     0
SMALL
USER_CHARGES

@<TRIPOS>ATOM
      1 PG          4.9333    6.5410    1.5643 P.3       1 ATP         1.5257
      2 O1G         3.8951    5.5181    1.1602 O.co2     1 ATP        -0.8737
      3 O2G         5.7753    7.2464    0.5245 O.co2     1 ATP        -0.8737
      4 O3G         4.2135    7.6686    2.5005 O.3       1 ATP        -0.7971
      5 PB          6.9948    4.6619    2.5454 P.3       1 ATP         1.6824
      6 O1B         7.9280    4.9677    1.3950 O.co2     1 ATP        -0.8925
      7 O2B         7.5295    4.3264    3.9198 O.co2     1 ATP        -0.8925
      8 O3B         5.9195    5.8825    2.6856 O.3       1 ATP        -0.8047
      9 PA          6.2528    1.9160    1.7305 P.3       1 ATP         1.5908
     10 O1A         6.7152    1.2121    2.9879 O.co2     1 ATP        -0.8932
     11 O2A         7.0781    1.8581    0.4635 O.co2     1 ATP        -0.8932
     12 O3A         5.9626    3.4848    2.0832 O.3       1 ATP        -0.8088
     13 O5'         4.7294    1.4427    1.3696 O.3       1 ATP        -0.5646
     14 C5'         4.0922    1.9801    0.2227 C.3       1 ATP         0.2204
     15 C4'         2.5944    2.0310    0.4653 C.3       1 ATP         0.0965
     16 O4'         1.9327    2.5740   -0.6889 O.3       1 ATP        -0.3907
     17 C3'         1.9685    0.6634    0.6767 C.3       1 ATP         0.0763
     18 O3'         2.1425    0.1975    1.9977 O.3       1 ATP        -0.5884
     19 C2'         0.5176    0.9128    0.3099 C.3       1 ATP         0.0784
     20 O2'        -0.2103    1.4454    1.4152 O.3       1 ATP        -0.6085
     21 C1'         0.6219    1.9765   -0.7844 C.3       1 ATP         0.2186
     22 N9          0.4237    1.4496   -2.1357 N.pl3     1 ATP        -0.1699
     23 C8          1.4069    0.9710   -2.9662 C.ar      1 ATP         0.4438
     24 N7          0.9316    0.5623   -4.1260 N.2       1 ATP        -0.6280
     25 C5         -0.4120    0.7884   -4.0344 C.ar      1 ATP         0.2109
     26 C6         -1.4353    0.5283   -5.0204 C.ar      1 ATP         0.6180
     27 N6         -1.1199    0.0176   -6.1586 N.2       1 ATP        -0.8319
     28 N1         -2.6704    0.9095   -4.5147 N.pl3     1 ATP        -0.8664
     29 C2         -2.8863    1.4571   -3.2520 C.ar      1 ATP         0.5952
     30 N3         -1.9805    1.7017   -2.3442 N.2       1 ATP        -0.5599
     31 C4         -0.7561    1.3381   -2.8112 C.ar      1 ATP         0.0076
     32 HOG3        4.7597    8.4068    2.8456 H         1 ATP         0.4101
     33 H5'1        4.4843    2.9854    0.0380 H         1 ATP         0.0364
     34 H5'2        4.3191    1.3446   -0.6392 H         1 ATP         0.0364
     35 H4'         2.3752    2.7029    1.3156 H         1 ATP         0.0945
     36 H3'         2.4336   -0.1217   -0.0015 H         1 ATP         0.0703
     37 HO3'        1.7160   -0.6716    2.0397 H         1 ATP         0.4099
     38 H2'         0.0316    0.0155   -0.0339 H         1 ATP         0.0676
     39 HO2'       -1.1270    1.5823    1.1180 H         1 ATP         0.4291
     40 H1'        -0.1474    2.7798   -0.6651 H         1 ATP         0.0950
     41 H8          2.4466    0.9468   -2.6694 H         1 ATP         0.1135
     42 HN62       -1.9661   -0.0965   -6.7275 H         1 ATP         0.3588
     43 H2         -3.9481    1.6825   -3.0660 H         1 ATP         0.0302
     44 H44        -3.4814    0.7753   -5.1133 H         1 ATP         0.4215
@<TRIPOS>BOND
     1    1    2 2
     2    1    3 1
     3    1    4 1
     4    1    8 1
     5    4   32 1
     6    5    6 2
     7    5    7 1
     8    5    8 1
     9    5   12 1
    10    9   10 2
    11    9   11 1
    12    9   12 1
    13    9   13 1
    14   13   14 1
    15   14   15 1
    16   14   33 1
    17   14   34 1
    18   15   16 1
    19   15   17 1
    20   15   35 1
    21   16   21 1
    22   17   18 1
    23   17   19 1
    24   17   36 1
    25   18   37 1
    26   19   20 1
    27   19   21 1
    28   19   38 1
    29   20   39 1
    30   21   22 1
    31   21   40 1
    32   22   23 ar
    33   22   31 ar
    34   23   24 ar
    35   23   41 1
    36   24   25 ar
    37   25   26 ar
    38   25   31 ar
    39   26   27 2
    40   26   28 ar
    41   27   42 1
    42   28   29 ar
    43   28   44 1
    44   29   30 ar
    45   29   43 1
    46   30   31 ar
@<TRIPOS>SUBSTRUCTURE
     1 ATP         1 GROUP 0 A     ****
@<TRIPOS>MOLECULE
[[[3,4-dihydroxy-5-(6-imino-1~{H}-purin-9-yl)tetrahydrofuran-2-yl]methoxy-oxido-phosphoryl]oxy-oxido-phosphoryl] hydrogen phosphate
   44    46     1     0     0
SMALL
USER_CHARGES

@<TRIPOS>ATOM
      1 PG         -6.4084    2.3383   -1.8250 P.3       1 ATP         1.5257
      2 O1G        -7.7062    2.9678   -1.3703 O.co2     1 ATP        -0.8737
      3 O2G        -6.3378    0.8683   -2.1738 O.co2     1 ATP        -0.8737
      4 O3G        -5.8284    3.1987   -3.0857 O.3       1 ATP        -0.7971
      5 PB         -4.7646    4.1198   -0.1315 P.3       1 ATP         1.6824
      6 O1B        -4.1320    4.9266   -1.2434 O.co2     1 ATP        -0.8925
      7 O2B        -5.8860    4.6887    0.7089 O.co2     1 ATP        -0.8925
      8 O3B        -5.2419    2.6801   -0.7358 O.3       1 ATP        -0.8047
      9 PA         -2.5926    4.4187    1.8556 P.3       1 ATP         1.5908
     10 O1A        -3.4218    5.0536    2.9508 O.co2     1 ATP        -0.8932
     11 O2A        -1.6631    5.2564    1.0048 O.co2     1 ATP        -0.8932
     12 O3A        -3.5855    3.5838    0.8621 O.3       1 ATP        -0.8088
     13 O5'        -1.7336    3.1724    2.4750 O.3       1 ATP        -0.5646
     14 C5'        -0.8811    2.4285    1.6206 C.3       1 ATP         0.2204
     15 C4'        -0.1994    1.3333    2.4288 C.3       1 ATP         0.0965
     16 O4'        -1.1285    0.2356    2.5840 O.3       1 ATP        -0.3907
     17 C3'         1.0324    0.7610    1.7344 C.3       1 ATP         0.0763
     18 O3'         1.9175    0.2377    2.7247 O.3       1 ATP        -0.5884
     19 C2'         0.4468   -0.3802    0.9263 C.3       1 ATP         0.0784
     20 O2'         1.3993   -1.3703    0.5961 O.3       1 ATP        -0.6085
     21 C1'        -0.6159   -0.9100    1.8769 C.3       1 ATP         0.2186
     22 N9         -1.7127   -1.6108    1.2130 N.pl3     1 ATP        -0.1699
     23 C8         -3.0370   -1.2489    1.2455 C.ar      1 ATP         0.4438
     24 N7         -3.8008   -2.0709    0.5534 N.2       1 ATP        -0.6280
     25 C5         -2.9295   -2.9976    0.0567 C.ar      1 ATP         0.2109
     26 C6         -3.2152   -4.1411   -0.7786 C.ar      1 ATP         0.6180
     27 N6         -4.4238   -4.3865   -1.1456 N.2       1 ATP        -0.8319
     28 N1         -2.0349   -4.8186   -1.0521 N.pl3     1 ATP        -0.8664
     29 C2         -0.7728   -4.4501   -0.5916 C.ar      1 ATP         0.5952
     30 N3         -0.4885   -3.4234    0.1630 N.2       1 ATP        -0.5599
     31 C4         -1.6274   -2.7377    0.4492 C.ar      1 ATP         0.0076
     32 HOG3       -4.9845    2.9138   -3.4966 H         1 ATP         0.4101
     33 H5'1       -1.4800    1.9927    0.8146 H         1 ATP         0.0364
     34 H5'2       -0.1367    3.1040    1.1872 H         1 ATP         0.0364
     35 H4'         0.0403    1.7078    3.4343 H         1 ATP         0.0945
     36 H3'         1.5907    1.4859    1.1353 H         1 ATP         0.0703
     37 HO3'        2.1521    0.9800    3.3017 H         1 ATP         0.4099
     38 H2'        -0.0017    0.0018    0.0005 H         1 ATP         0.0676
     39 HO2'        1.7495   -1.7243    1.4324 H         1 ATP         0.4291
     40 H1'        -0.1998   -1.6319    2.6178 H         1 ATP         0.0950
     41 H8         -3.3806   -0.3795    1.7893 H         1 ATP         0.1135
     42 HN62       -4.4384   -5.2300   -1.7295 H         1 ATP         0.3588
     43 H2          0.0180   -5.1355   -0.9348 H         1 ATP         0.0302
     44 H44        -2.0977   -5.6477   -1.6374 H         1 ATP         0.4215
@<TRIPOS>BOND
     1    1    2 2
     2    1    3 1
     3    1    4 1
     4    1    8 1
     5    4   32 1
     6    5    6 2
     7    5    7 1
     8    5    8 1
     9    5   12 1
    10    9   10 2
    11    9   11 1
    12    9   12 1
    13    9   13 1
    14   13   14 1
    15   14   15 1
    16   14   33 1
    17   14   34 1
    18   15   16 1
    19   15   17 1
    20   15   35 1
    21   16   21 1
    22   17   18 1
    23   17   19 1
    24   17   36 1
    25   18   37 1
    26   19   20 1
    27   19   21 1
    28   19   38 1
    29   20   39 1
    30   21   22 1
    31   21   40 1
    32   22   23 ar
    33   22   31 ar
    34   23   24 ar
    35   23   41 1
    36   24   25 ar
    37   25   26 ar
    38   25   31 ar
    39   26   27 2
    40   26   28 ar
    41   27   42 1
    42   28   29 ar
    43   28   44 1
    44   29   30 ar
    45   29   43 1
    46   30   31 ar
@<TRIPOS>SUBSTRUCTURE
     1 ATP         1 GROUP 0 A     ****
@<TRIPOS>MOLECULE
[[[3,4-dihydroxy-5-(6-imino-1~{H}-purin-9-yl)tetrahydrofuran-2-yl]methoxy-oxido-phosphoryl]oxy-oxido-phosphoryl] hydrogen phosphate
   44    46     1     0     0
SMALL
USER_CHARGES

@<TRIPOS>ATOM
      1 PG         -4.6311    7.9008    1.8770 P.3       1 ATP         1.5257
      2 O1G        -4.1181    9.2652    1.4735 O.co2     1 ATP        -0.8737
      3 O2G        -5.4278    7.7150    3.1492 O.co2     1 ATP        -0.8737
      4 O3G        -5.4880    7.2803    0.6334 O.3       1 ATP        -0.7971
      5 PB         -2.0719    6.7716    2.8355 P.3       1 ATP         1.6824
      6 O1B        -1.2041    7.9796    2.5614 O.co2     1 ATP        -0.8925
      7 O2B        -2.5170    6.4293    4.2399 O.co2     1 ATP        -0.8925
      8 O3B        -3.3881    6.8432    1.8721 O.3       1 ATP        -0.8047
      9 PA          0.0330    4.7083    2.5757 P.3       1 ATP         1.5908
     10 O1A        -0.1146    4.1098    3.9578 O.co2     1 ATP        -0.8932
     11 O2A         1.1815    5.6399    2.2548 O.co2     1 ATP        -0.8932
     12 O3A        -1.3630    5.4574    2.1758 O.3       1 ATP        -0.8088
     13 O5'         0.0178    3.5131    1.4595 O.3       1 ATP        -0.5646
     14 C5'        -0.8811    2.4285    1.6206 C.3       1 ATP         0.2204
     15 C4'        -0.1994    1.3333    2.4288 C.3       1 ATP         0.0965
     16 O4'        -1.1285    0.2356    2.5840 O.3       1 ATP        -0.3907
     17 C3'         1.0324    0.7610    1.7344 C.3       1 ATP         0.0763
     18 O3'         1.9175    0.2377    2.7247 O.3       1 ATP        -0.5884
     19 C2'         0.4468   -0.3802    0.9263 C.3       1 ATP         0.0784
     20 O2'         1.3993   -1.3703    0.5961 O.3       1 ATP        -0.6085
     21 C1'        -0.6159   -0.9100    1.8769 C.3       1 ATP         0.2186
     22 N9         -1.7127   -1.6108    1.2130 N.pl3     1 ATP        -0.1699
     23 C8         -2.5485   -1.0808    0.2609 C.ar      1 ATP         0.4438
     24 N7         -3.4476   -1.9486   -0.1593 N.2       1 ATP        -0.6280
     25 C5         -3.1762   -3.0816    0.5530 C.ar      1 ATP         0.2109
     26 C6         -3.8510   -4.3579    0.5006 C.ar      1 ATP         0.6180
     27 N6         -4.8468   -4.5293   -0.2961 N.2       1 ATP        -0.8319
     28 N1         -3.2499   -5.2342    1.3937 N.pl3     1 ATP        -0.8664
     29 C2         -2.1646   -4.9275    2.2116 C.ar      1 ATP         0.5952
     30 N3         -1.5382   -3.7840    2.2778 N.2       1 ATP        -0.5599
     31 C4         -2.1054   -2.9018    1.4120 C.ar      1 ATP         0.0076
     32 HOG3       -5.8899    6.3919    0.7407 H         1 ATP         0.4101
     33 H5'1       -1.7771    2.7849    2.1387 H         1 ATP         0.0364
     34 H5'2       -1.1654    2.0541    0.6320 H         1 ATP         0.0364
     35 H4'         0.0403    1.7078    3.4343 H         1 ATP         0.0945
     36 H3'         1.5907    1.4859    1.1353 H         1 ATP         0.0703
     37 HO3'        2.1521    0.9800    3.3017 H         1 ATP         0.4099
     38 H2'        -0.0017    0.0018    0.0005 H         1 ATP         0.0676
     39 HO2'        2.0953   -0.9375    0.0709 H         1 ATP         0.4291
     40 H1'        -0.1998   -1.6319    2.6178 H         1 ATP         0.0950
     41 H8         -2.4515   -0.0599   -0.0829 H         1 ATP         0.1135
     42 HN62       -5.1990   -5.4882   -0.2005 H         1 ATP         0.3588
     43 H2         -1.8555   -5.7783    2.8388 H         1 ATP         0.0302
     44 H44        -3.6312   -6.1750    1.4526 H         1 ATP         0.4215
@<TRIPOS>BOND
     1    1    2 2
     2    1    3 1
     3    1    4 1
     4    1    8 1
     5    4   32 1
     6    5    6 2
     7    5    7 1
     8    5    8 1
     9    5   12 1
    10    9   10 2
    11    9   11 1
    12    9   12 1
    13    9   13 1
    14   13   14 1
    15   14   15 1
    16   14   33 1
    17   14   34 1
    18   15   16 1
    19   15   17 1
    20   15   35 1
    21   16   21 1
    22   17   18 1
    23   17   19 1
    24   17   36 1
    25   18   37 1
    26   19   20 1
    27   19   21 1
    28   19   38 1
    29   20   39 1
    30   21   22 1
    31   21   40 1
    32   22   23 ar
    33   22   31 ar
    34   23   24 ar
    35   23   41 1
    36   24   25 ar
    37   25   26 ar
    38   25   31 ar
    39   26   27 2
    40   26   28 ar
    41   27   42 1
    42   28   29 ar
    43   28   44 1
    44   29   30 ar
    45   29   43 1
    46   30   31 ar
@<TRIPOS>SUBSTRUCTURE
     1 ATP         1 GROUP 0 A     ****
@<TRIPOS>MOLECULE
[[[3,4-dihydroxy-5-(6-imino-1~{H}-purin-9-yl)tetrahydrofuran-2-yl]methoxy-oxido-phosphoryl]oxy-oxido-phosphoryl] hydrogen phosphate
   44    46     1     0     0
SMALL
USER_CHARGES

@<TRIPOS>ATOM
      1 PG          6.7790    2.7298   -6.3406 P.3       1 ATP         1.5257
      2 O1G         6.5883    1.4281   -7.0866 O.co2     1 ATP        -0.8737
      3 O2G         8.1529    3.3432   -6.1862 O.co2     1 ATP        -0.8737
      4 O3G         5.7813    3.8491   -6.9869 O.3       1 ATP        -0.7971
      5 PB          5.8619    3.7408   -3.7175 P.3       1 ATP         1.6824
      6 O1B         7.2118    4.1627   -3.1817 O.co2     1 ATP        -0.8925
      7 O2B         4.8695    4.7601   -4.2311 O.co2     1 ATP        -0.8925
      8 O3B         6.0873    2.6041   -4.8676 O.3       1 ATP        -0.8047
      9 PA          5.6603    1.4687   -1.8328 P.3       1 ATP         1.5908
     10 O1A         6.8284    1.8494   -0.9491 O.co2     1 ATP        -0.8932
     11 O2A         5.7909    0.3574   -2.8515 O.co2     1 ATP        -0.8932
     12 O3A         5.1235    2.8079   -2.5998 O.3       1 ATP        -0.8088
     13 O5'         4.3516    1.1575   -0.9026 O.3       1 ATP        -0.5646
     14 C5'         4.0922    1.9801    0.2227 C.3       1 ATP         0.2204
     15 C4'         2.5944    2.0310    0.4653 C.3       1 ATP         0.0965
     16 O4'         1.9327    2.5740   -0.6889 O.3       1 ATP        -0.3907
     17 C3'         1.9685    0.6634    0.6767 C.3       1 ATP         0.0763
     18 O3'         2.1425    0.1975    1.9977 O.3       1 ATP        -0.5884
     19 C2'         0.5176    0.9128    0.3099 C.3       1 ATP         0.0784
     20 O2'        -0.2103    1.4454    1.4152 O.3       1 ATP        -0.6085
     21 C1'         0.6219    1.9765   -0.7844 C.3       1 ATP         0.2186
     22 N9          0.4237    1.4496   -2.1357 N.pl3     1 ATP        -0.1699
     23 C8          1.4069    0.9710   -2.9662 C.ar      1 ATP         0.4438
     24 N7          0.9316    0.5623   -4.1260 N.2       1 ATP        -0.6280
     25 C5         -0.4120    0.7884   -4.0344 C.ar      1 ATP         0.2109
     26 C6         -1.4353    0.5283   -5.0204 C.ar      1 ATP         0.6180
     27 N6         -1.1199    0.0176   -6.1586 N.2       1 ATP        -0.8319
     28 N1         -2.6704    0.9095   -4.5147 N.pl3     1 ATP        -0.8664
     29 C2         -2.8863    1.4571   -3.2520 C.ar      1 ATP         0.5952
     30 N3         -1.9805    1.7017   -2.3442 N.2       1 ATP        -0.5599
     31 C4         -0.7561    1.3381   -2.8112 C.ar      1 ATP         0.0076
     32 HOG3        5.7873    4.7541   -6.6085 H         1 ATP         0.4101
     33 H5'1        4.6069    1.5618    1.0936 H         1 ATP         0.0364
     34 H5'2        4.4824    2.9837    0.0254 H         1 ATP         0.0364
     35 H4'         2.3752    2.7029    1.3156 H         1 ATP         0.0945
     36 H3'         2.4336   -0.1217   -0.0015 H         1 ATP         0.0703
     37 HO3'        1.7160   -0.6716    2.0397 H         1 ATP         0.4099
     38 H2'         0.0316    0.0155   -0.0339 H         1 ATP         0.0676
     39 HO2'       -0.1608    0.7921    2.1351 H         1 ATP         0.4291
     40 H1'        -0.1474    2.7798   -0.6651 H         1 ATP         0.0950
     41 H8          2.4466    0.9468   -2.6694 H         1 ATP         0.1135
     42 HN62       -1.9661   -0.0965   -6.7275 H         1 ATP         0.3588
     43 H2         -3.9481    1.6825   -3.0660 H         1 ATP         0.0302
     44 H44        -3.4814    0.7753   -5.1133 H         1 ATP         0.4215
@<TRIPOS>BOND
     1    1    2 2
     2    1    3 1
     3    1    4 1
     4    1    8 1
     5    4   32 1
     6    5    6 2
     7    5    7 1
     8    5    8 1
     9    5   12 1
    10    9   10 2
    11    9   11 1
    12    9   12 1
    13    9   13 1
    14   13   14 1
    15   14   15 1
    16   14   33 1
    17   14   34 1
    18   15   16 1
    19   15   17 1
    20   15   35 1
    21   16   21 1
    22   17   18 1
    23   17   19 1
    24   17   36 1
    25   18   37 1
    26   19   20 1
    27   19   21 1
    28   19   38 1
    29   20   39 1
    30   21   22 1
    31   21   40 1
    32   22   23 ar
    33   22   31 ar
    34   23   24 ar
    35   23   41 1
    36   24   25 ar
    37   25   26 ar
    38   25   31 ar
    39   26   27 2
    40   26   28 ar
    41   27   42 1
    42   28   29 ar
    43   28   44 1
    44   29   30 ar
    45   29   43 1
    46   30   31 ar
@<TRIPOS>SUBSTRUCTURE
     1 ATP         1 GROUP 0 A     ****
@<TRIPOS>MOLECULE
[[[3,4-dihydroxy-5-(6-imino-1~{H}-purin-9-yl)tetrahydrofuran-2-yl]methoxy-oxido-phosphoryl]oxy-oxido-phosphoryl] hydrogen phosphate
   44    46     1     0     0
SMALL
USER_CHARGES

@<TRIPOS>ATOM
      1 PG         -2.4565    5.2870   -2.1161 P.3       1 ATP         1.5257
      2 O1G        -3.0403    4.4125   -3.2032 O.co2     1 ATP        -0.8737
      3 O2G        -1.2575    4.8331   -1.3136 O.co2     1 ATP        -0.8737
      4 O3G        -2.1295    6.7552   -2.7512 O.3       1 ATP        -0.7971
      5 PB         -4.5240    4.8101   -0.0567 P.3       1 ATP         1.6824
      6 O1B        -5.3815    5.7240    0.7901 O.co2     1 ATP        -0.8925
      7 O2B        -5.1301    3.6568   -0.8249 O.co2     1 ATP        -0.8925
      8 O3B        -3.6470    5.7225   -1.0881 O.3       1 ATP        -0.8047
      9 PA         -3.3347    3.2338    2.1468 P.3       1 ATP         1.5908
     10 O1A        -3.8074    1.8725    1.6847 O.co2     1 ATP        -0.8932
     11 O2A        -4.0244    3.9450    3.2906 O.co2     1 ATP        -0.8932
     12 O3A        -3.2997    4.2420    0.8615 O.3       1 ATP        -0.8088
     13 O5'        -1.7336    3.1724    2.4750 O.3       1 ATP        -0.5646
     14 C5'        -0.8811    2.4285    1.6206 C.3       1 ATP         0.2204
     15 C4'        -0.1994    1.3333    2.4288 C.3       1 ATP         0.0965
     16 O4'        -1.1285    0.2356    2.5840 O.3       1 ATP        -0.3907
     17 C3'         1.0324    0.7610    1.7344 C.3       1 ATP         0.0763
     18 O3'         1.9175    0.2377    2.7247 O.3       1 ATP        -0.5884
     19 C2'         0.4468   -0.3802    0.9263 C.3       1 ATP         0.0784
     20 O2'         1.3993   -1.3703    0.5961 O.3       1 ATP        -0.6085
     21 C1'        -0.6159   -0.9100    1.8769 C.3       1 ATP         0.2186
     22 N9         -1.7127   -1.6108    1.2130 N.pl3     1 ATP        -0.1699
     23 C8         -2.0868   -2.9137    1.4327 C.ar      1 ATP         0.4438
     24 N7         -3.1125   -3.2756    0.6878 N.2       1 ATP        -0.6280
     25 C5         -3.4079   -2.1580   -0.0391 C.ar      1 ATP         0.2109
     26 C6         -4.4483   -1.9775   -1.0249 C.ar      1 ATP         0.6180
     27 N6         -5.2418   -2.9492   -1.3113 N.2       1 ATP        -0.8319
     28 N1         -4.3937   -0.6823   -1.5211 N.pl3     1 ATP        -0.8664
     29 C2         -3.4770    0.2901   -1.1271 C.ar      1 ATP         0.5952
     30 N3         -2.5289    0.1525   -0.2402 N.2       1 ATP        -0.5599
     31 C4         -2.5564   -1.1096    0.2655 C.ar      1 ATP         0.0076
     32 HOG3       -1.7427    7.4413   -2.1664 H         1 ATP         0.4101
     33 H5'1       -1.4800    1.9927    0.8146 H         1 ATP         0.0364
     34 H5'2       -0.1367    3.1040    1.1872 H         1 ATP         0.0364
     35 H4'         0.0403    1.7078    3.4343 H         1 ATP         0.0945
     36 H3'         1.5907    1.4859    1.1353 H         1 ATP         0.0703
     37 HO3'        2.6839   -0.1150    2.2479 H         1 ATP         0.4099
     38 H2'        -0.0017    0.0018    0.0005 H         1 ATP         0.0676
     39 HO2'        2.0953   -0.9375    0.0709 H         1 ATP         0.4291
     40 H1'        -0.1998   -1.6319    2.6178 H         1 ATP         0.0950
     41 H8         -1.5740   -3.5449    2.1457 H         1 ATP         0.1135
     42 HN62       -5.9117   -2.6433   -2.0256 H         1 ATP         0.3588
     43 H2         -3.6225    1.2454   -1.6553 H         1 ATP         0.0302
     44 H44        -5.0794   -0.4231   -2.2258 H         1 ATP         0.4215
@<TRIPOS>BOND
     1    1    2 2
     2    1    3 1
     3    1    4 1
     4    1    8 1
     5    4   32 1
     6    5    6 2
     7    5    7 1
     8    5    8 1
     9    5   12 1
    10    9   10 2
    11    9   11 1
    12    9   12 1
    13    9   13 1
    14   13   14 1
    15   14   15 1
    16   14   33 1
    17   14   34 1
    18   15   16 1
    19   15   17 1
    20   15   35 1
    21   16   21 1
    22   17   18 1
    23   17   19 1
    24   17   36 1
    25   18   37 1
    26   19   20 1
    27   19   21 1
    28   19   38 1
    29   20   39 1
    30   21   22 1
    31   21   40 1
    32   22   23 ar
    33   22   31 ar
    34   23   24 ar
    35   23   41 1
    36   24   25 ar
    37   25   26 ar
    38   25   31 ar
    39   26   27 2
    40   26   28 ar
    41   27   42 1
    42   28   29 ar
    43   28   44 1
    44   29   30 ar
    45   29   43 1
    46   30   31 ar
@<TRIPOS>SUBSTRUCTURE
     1 ATP         1 GROUP 0 A     ****
@<TRIPOS>MOLECULE
[[[3,4-dihydroxy-5-(6-imino-1~{H}-purin-9-yl)tetrahydrofuran-2-yl]methoxy-oxido-phosphoryl]oxy-oxido-phosphoryl] hydrogen phosphate
   44    46     1     0     0
SMALL
USER_CHARGES

@<TRIPOS>ATOM
      1 PG         -3.7637    7.6606    2.4043 P.3       1 ATP         1.5257
      2 O1G        -3.2771    9.0554    2.0800 O.co2     1 ATP        -0.8737
      3 O2G        -3.4530    7.0197    3.7387 O.co2     1 ATP        -0.8737
      4 O3G        -5.3781    7.6061    2.1663 O.3       1 ATP        -0.7971
      5 PB         -1.8095    6.1585    0.7708 P.3       1 ATP         1.6824
      6 O1B        -1.9418    5.0848   -0.2862 O.co2     1 ATP        -0.8925
      7 O2B        -0.9477    7.3803    0.5428 O.co2     1 ATP        -0.8925
      8 O3B        -3.3040    6.6468    1.2107 O.3       1 ATP        -0.8047
      9 PA          0.0330    4.7083    2.5757 P.3       1 ATP         1.5908
     10 O1A        -0.1146    4.1098    3.9578 O.co2     1 ATP        -0.8932
     11 O2A         1.1815    5.6399    2.2548 O.co2     1 ATP        -0.8932
     12 O3A        -1.3630    5.4574    2.1758 O.3       1 ATP        -0.8088
     13 O5'         0.0178    3.5131    1.4595 O.3       1 ATP        -0.5646
     14 C5'        -0.8811    2.4285    1.6206 C.3       1 ATP         0.2204
     15 C4'        -0.1994    1.3333    2.4288 C.3       1 ATP         0.0965
     16 O4'        -1.1285    0.2356    2.5840 O.3       1 ATP        -0.3907
     17 C3'         1.0324    0.7610    1.7344 C.3       1 ATP         0.0763
     18 O3'         1.9175    0.2377    2.7247 O.3       1 ATP        -0.5884
     19 C2'         0.4468   -0.3802    0.9263 C.3       1 ATP         0.0784
     20 O2'         1.3993   -1.3703    0.5961 O.3       1 ATP        -0.6085
     21 C1'        -0.6159   -0.9100    1.8769 C.3       1 ATP         0.2186
     22 N9         -1.7127   -1.6108    1.2130 N.pl3     1 ATP        -0.1699
     23 C8         -1.7690   -2.9583    0.9549 C.ar      1 ATP         0.4438
     24 N7         -2.8827   -3.3076    0.3418 N.2       1 ATP        -0.6280
     25 C5         -3.5683   -2.1351    0.2017 C.ar      1 ATP         0.2109
     26 C6         -4.8617   -1.9185   -0.4044 C.ar      1 ATP         0.6180
     27 N6         -5.5166   -2.9094   -0.8993 N.2       1 ATP        -0.8319
     28 N1         -5.1837   -0.5701   -0.3344 N.pl3     1 ATP        -0.8664
     29 C2         -4.3821    0.4180    0.2330 C.ar      1 ATP         0.5952
     30 N3         -3.2117    0.2488    0.7860 N.2       1 ATP        -0.5599
     31 C4         -2.8672   -1.0657    0.7327 C.ar      1 ATP         0.0076
     32 HOG3       -5.8467    6.7610    2.3355 H         1 ATP         0.4101
     33 H5'1       -1.7771    2.7849    2.1387 H         1 ATP         0.0364
     34 H5'2       -1.1654    2.0541    0.6320 H         1 ATP         0.0364
     35 H4'         0.0403    1.7078    3.4343 H         1 ATP         0.0945
     36 H3'         1.5907    1.4859    1.1353 H         1 ATP         0.0703
     37 HO3'        2.6839   -0.1150    2.2479 H         1 ATP         0.4099
     38 H2'        -0.0017    0.0018    0.0005 H         1 ATP         0.0676
     39 HO2'        2.0953   -0.9375    0.0709 H         1 ATP         0.4291
     40 H1'        -0.1998   -1.6319    2.6178 H         1 ATP         0.0950
     41 H8         -0.9697   -3.6300    1.2371 H         1 ATP         0.1135
     42 HN62       -6.4060   -2.5723   -1.2840 H         1 ATP         0.3588
     43 H2         -4.8409    1.4176    0.1757 H         1 ATP         0.0302
     44 H44        -6.0768   -0.2826   -0.7263 H         1 ATP         0.4215
@<TRIPOS>BOND
     1    1    2 2
     2    1    3 1
     3    1    4 1
     4    1    8 1
     5    4   32 1
     6    5    6 2
     7    5    7 1
     8    5    8 1
     9    5   12 1
    10    9   10 2
    11    9   11 1
    12    9   12 1
    13    9   13 1
    14   13   14 1
    15   14   15 1
    16   14   33 1
    17   14   34 1
    18   15   16 1
    19   15   17 1
    20   15   35 1
    21   16   21 1
    22   17   18 1
    23   17   19 1
    24   17   36 1
    25   18   37 1
    26   19   20 1
    27   19   21 1
    28   19   38 1
    29   20   39 1
    30   21   22 1
    31   21   40 1
    32   22   23 ar
    33   22   31 ar
    34   23   24 ar
    35   23   41 1
    36   24   25 ar
    37   25   26 ar
    38   25   31 ar
    39   26   27 2
    40   26   28 ar
    41   27   42 1
    42   28   29 ar
    43   28   44 1
    44   29   30 ar
    45   29   43 1
    46   30   31 ar
@<TRIPOS>SUBSTRUCTURE
     1 ATP         1 GROUP 0 A     ****
@<TRIPOS>MOLECULE
[[[3,4-dihydroxy-5-(6-imino-1~{H}-purin-9-yl)tetrahydrofuran-2-yl]methoxy-oxido-phosphoryl]oxy-oxido-phosphoryl] hydrogen phosphate
   44    46     1     0     0
SMALL
USER_CHARGES

@<TRIPOS>ATOM
      1 PG          8.7252    0.3755   -0.5370 P.3       1 ATP         1.5257
      2 O1G         8.7229   -0.6530   -1.6459 O.co2     1 ATP        -0.8737
      3 O2G         7.5805    0.4588    0.4482 O.co2     1 ATP        -0.8737
      4 O3G        10.1200    0.2329    0.2998 O.3       1 ATP        -0.7971
      5 PB          8.0229    2.7372   -2.1717 P.3       1 ATP         1.6824
      6 O1B         8.6415    4.1066   -2.3437 O.co2     1 ATP        -0.8925
      7 O2B         7.6478    1.8913   -3.3681 O.co2     1 ATP        -0.8925
      8 O3B         8.9754    1.8530   -1.1834 O.3       1 ATP        -0.8047
      9 PA          5.2953    3.6262   -1.4472 P.3       1 ATP         1.5908
     10 O1A         4.5607    2.9193   -2.5657 O.co2     1 ATP        -0.8932
     11 O2A         5.5518    5.1161   -1.5107 O.co2     1 ATP        -0.8932
     12 O3A         6.7215    2.8698   -1.1952 O.3       1 ATP        -0.8088
     13 O5'         4.5670    3.2937   -0.0211 O.3       1 ATP        -0.5646
     14 C5'         4.0922    1.9801    0.2227 C.3       1 ATP         0.2204
     15 C4'         2.5944    2.0310    0.4653 C.3       1 ATP         0.0965
     16 O4'         1.9327    2.5740   -0.6889 O.3       1 ATP        -0.3907
     17 C3'         1.9685    0.6634    0.6767 C.3       1 ATP         0.0763
     18 O3'         2.1425    0.1975    1.9977 O.3       1 ATP        -0.5884
     19 C2'         0.5176    0.9128    0.3099 C.3       1 ATP         0.0784
     20 O2'        -0.2103    1.4454    1.4152 O.3       1 ATP        -0.6085
     21 C1'         0.6219    1.9765   -0.7844 C.3       1 ATP         0.2186
     22 N9          0.4237    1.4496   -2.1357 N.pl3     1 ATP        -0.1699
     23 C8          1.4069    0.9710   -2.9662 C.ar      1 ATP         0.4438
     24 N7          0.9316    0.5623   -4.1260 N.2       1 ATP        -0.6280
     25 C5         -0.4120    0.7884   -4.0344 C.ar      1 ATP         0.2109
     26 C6         -1.4353    0.5283   -5.0204 C.ar      1 ATP         0.6180
     27 N6         -1.1199    0.0176   -6.1586 N.2       1 ATP        -0.8319
     28 N1         -2.6704    0.9095   -4.5147 N.pl3     1 ATP        -0.8664
     29 C2         -2.8863    1.4571   -3.2520 C.ar      1 ATP         0.5952
     30 N3         -1.9805    1.7017   -2.3442 N.2       1 ATP        -0.5599
     31 C4         -0.7561    1.3381   -2.8112 C.ar      1 ATP         0.0076
     32 HOG3       10.2733    0.8361    1.0580 H         1 ATP         0.4101
     33 H5'1        4.3179    1.3548   -0.6470 H         1 ATP         0.0364
     34 H5'2        4.6083    1.5737    1.0983 H         1 ATP         0.0364
     35 H4'         2.3752    2.7029    1.3156 H         1 ATP         0.0945
     36 H3'         2.4336   -0.1217   -0.0015 H         1 ATP         0.0703
     37 HO3'        1.7160   -0.6716    2.0397 H         1 ATP         0.4099
     38 H2'         0.0316    0.0155   -0.0339 H         1 ATP         0.0676
     39 HO2'       -0.1608    0.7921    2.1351 H         1 ATP         0.4291
     40 H1'        -0.1474    2.7798   -0.6651 H         1 ATP         0.0950
     41 H8          2.4466    0.9468   -2.6694 H         1 ATP         0.1135
     42 HN62       -1.9661   -0.0965   -6.7275 H         1 ATP         0.3588
     43 H2         -3.9481    1.6825   -3.0660 H         1 ATP         0.0302
     44 H44        -3.4814    0.7753   -5.1133 H         1 ATP         0.4215
@<TRIPOS>BOND
     1    1    2 2
     2    1    3 1
     3    1    4 1
     4    1    8 1
     5    4   32 1
     6    5    6 2
     7    5    7 1
     8    5    8 1
     9    5   12 1
    10    9   10 2
    11    9   11 1
    12    9   12 1
    13    9   13 1
    14   13   14 1
    15   14   15 1
    16   14   33 1
    17   14   34 1
    18   15   16 1
    19   15   17 1
    20   15   35 1
    21   16   21 1
    22   17   18 1
    23   17   19 1
    24   17   36 1
    25   18   37 1
    26   19   20 1
    27   19   21 1
    28   19   38 1
    29   20   39 1
    30   21   22 1
    31   21   40 1
    32   22   23 ar
    33   22   31 ar
    34   23   24 ar
    35   23   41 1
    36   24   25 ar
    37   25   26 ar
    38   25   31 ar
    39   26   27 2
    40   26   28 ar
    41   27   42 1
    42   28   29 ar
    43   28   44 1
    44   29   30 ar
    45   29   43 1
    46   30   31 ar
@<TRIPOS>SUBSTRUCTURE
     1 ATP         1 GROUP 0 A     ****
@<TRIPOS>MOLECULE
[[[3,4-dihydroxy-5-(6-imino-1~{H}-purin-9-yl)tetrahydrofuran-2-yl]methoxy-oxido-phosphoryl]oxy-oxido-phosphoryl] hydrogen phosphate
   44    46     1     0     0
SMALL
USER_CHARGES

@<TRIPOS>ATOM
      1 PG         -4.6411    5.6713    1.1491 P.3       1 ATP         1.5257
      2 O1G        -3.2695    6.2819    0.9668 O.co2     1 ATP        -0.8737
      3 O2G        -5.0405    5.0352    2.4619 O.co2     1 ATP        -0.8737
      4 O3G        -5.7633    6.7888    0.7518 O.3       1 ATP        -0.7971
      5 PB         -4.1850    3.1832   -0.3822 P.3       1 ATP         1.6824
      6 O1B        -4.2317    2.3215    0.8599 O.co2     1 ATP        -0.8925
      7 O2B        -4.6925    2.6697   -1.7112 O.co2     1 ATP        -0.8925
      8 O3B        -4.9139    4.6078   -0.0586 O.3       1 ATP        -0.8047
      9 PA         -1.2907    2.9172   -0.9365 P.3       1 ATP         1.5908
     10 O1A        -0.1221    3.8764   -0.8702 O.co2     1 ATP        -0.8932
     11 O2A        -1.5403    2.0866   -2.1765 O.co2     1 ATP        -0.8932
     12 O3A        -2.6609    3.7331   -0.5806 O.3       1 ATP        -0.8088
     13 O5'        -1.2434    1.9104    0.3515 O.3       1 ATP        -0.5646
     14 C5'        -0.8811    2.4285    1.6206 C.3       1 ATP         0.2204
     15 C4'        -0.1994    1.3333    2.4288 C.3       1 ATP         0.0965
     16 O4'        -1.1285    0.2356    2.5840 O.3       1 ATP        -0.3907
     17 C3'         1.0324    0.7610    1.7344 C.3       1 ATP         0.0763
     18 O3'         1.9175    0.2377    2.7247 O.3       1 ATP        -0.5884
     19 C2'         0.4468   -0.3802    0.9263 C.3       1 ATP         0.0784
     20 O2'         1.3993   -1.3703    0.5961 O.3       1 ATP        -0.6085
     21 C1'        -0.6159   -0.9100    1.8769 C.3       1 ATP         0.2186
     22 N9         -1.7127   -1.6108    1.2130 N.pl3     1 ATP        -0.1699
     23 C8         -2.8662   -1.0361    0.7388 C.ar      1 ATP         0.4438
     24 N7         -3.6774   -1.9166    0.1867 N.2       1 ATP        -0.6280
     25 C5         -3.0159   -3.1045    0.3122 C.ar      1 ATP         0.2109
     26 C6         -3.4377   -4.4169   -0.1199 C.ar      1 ATP         0.6180
     27 N6         -4.5720   -4.5691   -0.7080 N.2       1 ATP        -0.8319
     28 N1         -2.4600   -5.3463    0.2071 N.pl3     1 ATP        -0.8664
     29 C2         -1.2595   -5.0554    0.8515 C.ar      1 ATP         0.5952
     30 N3         -0.8555   -3.8803    1.2516 N.2       1 ATP        -0.5599
     31 C4         -1.7946   -2.9457    0.9448 C.ar      1 ATP         0.0076
     32 HOG3       -6.7107    6.5432    0.8182 H         1 ATP         0.4101
     33 H5'1       -0.2033    3.2760    1.4769 H         1 ATP         0.0364
     34 H5'2       -1.7841    2.7762    2.1323 H         1 ATP         0.0364
     35 H4'         0.0403    1.7078    3.4343 H         1 ATP         0.0945
     36 H3'         1.5907    1.4859    1.1353 H         1 ATP         0.0703
     37 HO3'        2.6839   -0.1150    2.2479 H         1 ATP         0.4099
     38 H2'        -0.0017    0.0018    0.0005 H         1 ATP         0.0676
     39 HO2'        2.0953   -0.9375    0.0709 H         1 ATP         0.4291
     40 H1'        -0.1998   -1.6319    2.6178 H         1 ATP         0.0950
     41 H8         -3.0558    0.0252    0.8256 H         1 ATP         0.1135
     42 HN62       -4.7047   -5.5592   -0.9421 H         1 ATP         0.3588
     43 H2         -0.6372   -5.9505    1.0077 H         1 ATP         0.0302
     44 H44        -2.6338   -6.3155   -0.0469 H         1 ATP         0.4215
@<TRIPOS>BOND
     1    1    2 2
     2    1    3 1
     3    1    4 1
     4    1    8 1
     5    4   32 1
     6    5    6 2
     7    5    7 1
     8    5    8 1
     9    5   12 1
    10    9   10 2
    11    9   11 1
    12    9   12 1
    13    9   13 1
    14   13   14 1
    15   14   15 1
    16   14   33 1
    17   14   34 1
    18   15   16 1
    19   15   17 1
    20   15   35 1
    21   16   21 1
    22   17   18 1
    23   17   19 1
    24   17   36 1
    25   18   37 1
    26   19   20 1
    27   19   21 1
    28   19   38 1
    29   20   39 1
    30   21   22 1
    31   21   40 1
    32   22   23 ar
    33   22   31 ar
    34   23   24 ar
    35   23   41 1
    36   24   25 ar
    37   25   26 ar
    38   25   31 ar
    39   26   27 2
    40   26   28 ar
    41   27   42 1
    42   28   29 ar
    43   28   44 1
    44   29   30 ar
    45   29   43 1
    46   30   31 ar
@<TRIPOS>SUBSTRUCTURE
     1 ATP         1 GROUP 0 A     ****
@<TRIPOS>MOLECULE
[[[3,4-dihydroxy-5-(6-imino-1~{H}-purin-9-yl)tetrahydrofuran-2-yl]methoxy-oxido-phosphoryl]oxy-oxido-phosphoryl] hydrogen phosphate
   44    46     1     0     0
SMALL
USER_CHARGES

@<TRIPOS>ATOM
      1 PG         -6.1191    6.9397    0.1517 P.3       1 ATP         1.5257
      2 O1G        -5.5072    8.3121   -0.0197 O.co2     1 ATP        -0.8737
      3 O2G        -7.2465    6.7084    1.1331 O.co2     1 ATP        -0.8737
      4 O3G        -6.5875    6.3938   -1.3140 O.3       1 ATP        -0.7971
      5 PB         -3.5625    5.5559   -0.3896 P.3       1 ATP         1.6824
      6 O1B        -3.9367    4.9590   -1.7279 O.co2     1 ATP        -0.8925
      7 O2B        -2.6569    6.7637   -0.2962 O.co2     1 ATP        -0.8925
      8 O3B        -4.9303    5.8613    0.4480 O.3       1 ATP        -0.8047
      9 PA         -2.5400    4.4095    2.1393 P.3       1 ATP         1.5908
     10 O1A        -3.7865    4.6329    2.9680 O.co2     1 ATP        -0.8932
     11 O2A        -1.3370    5.3145    2.2921 O.co2     1 ATP        -0.8932
     12 O3A        -2.9585    4.3736    0.5603 O.3       1 ATP        -0.8088
     13 O5'        -2.0401    2.8620    2.3128 O.3       1 ATP        -0.5646
     14 C5'        -0.8811    2.4285    1.6206 C.3       1 ATP         0.2204
     15 C4'        -0.1994    1.3333    2.4288 C.3       1 ATP         0.0965
     16 O4'        -1.1285    0.2356    2.5840 O.3       1 ATP        -0.3907
     17 C3'         1.0324    0.7610    1.7344 C.3       1 ATP         0.0763
     18 O3'         1.9175    0.2377    2.7247 O.3       1 ATP        -0.5884
     19 C2'         0.4468   -0.3802    0.9263 C.3       1 ATP         0.0784
     20 O2'         1.3993   -1.3703    0.5961 O.3       1 ATP        -0.6085
     21 C1'        -0.6159   -0.9100    1.8769 C.3       1 ATP         0.2186
     22 N9         -1.7127   -1.6108    1.2130 N.pl3     1 ATP        -0.1699
     23 C8         -2.0868   -2.9137    1.4327 C.ar      1 ATP         0.4438
     24 N7         -3.1125   -3.2756    0.6878 N.2       1 ATP        -0.6280
     25 C5         -3.4079   -2.1580   -0.0391 C.ar      1 ATP         0.2109
     26 C6         -4.4483   -1.9775   -1.0249 C.ar      1 ATP         0.6180
     27 N6         -5.2418   -2.9492   -1.3113 N.2       1 ATP        -0.8319
     28 N1         -4.3937   -0.6823   -1.5211 N.pl3     1 ATP        -0.8664
     29 C2         -3.4770    0.2901   -1.1271 C.ar      1 ATP         0.5952
     30 N3         -2.5289    0.1525   -0.2402 N.2       1 ATP        -0.5599
     31 C4         -2.5564   -1.1096    0.2655 C.ar      1 ATP         0.0076
     32 HOG3       -7.0067    5.5087   -1.3706 H         1 ATP         0.4101
     33 H5'1       -1.1767    2.0502    0.6368 H         1 ATP         0.0364
     34 H5'2       -0.2080    3.2814    1.4876 H         1 ATP         0.0364
     35 H4'         0.0403    1.7078    3.4343 H         1 ATP         0.0945
     36 H3'         1.5907    1.4859    1.1353 H         1 ATP         0.0703
     37 HO3'        2.1521    0.9800    3.3017 H         1 ATP         0.4099
     38 H2'        -0.0017    0.0018    0.0005 H         1 ATP         0.0676
     39 HO2'        0.9369   -2.0558    0.0825 H         1 ATP         0.4291
     40 H1'        -0.1998   -1.6319    2.6178 H         1 ATP         0.0950
     41 H8         -1.5740   -3.5449    2.1457 H         1 ATP         0.1135
     42 HN62       -5.9117   -2.6433   -2.0256 H         1 ATP         0.3588
     43 H2         -3.6225    1.2454   -1.6553 H         1 ATP         0.0302
     44 H44        -5.0794   -0.4231   -2.2258 H         1 ATP         0.4215
@<TRIPOS>BOND
     1    1    2 2
     2    1    3 1
     3    1    4 1
     4    1    8 1
     5    4   32 1
     6    5    6 2
     7    5    7 1
     8    5    8 1
     9    5   12 1
    10    9   10 2
    11    9   11 1
    12    9   12 1
    13    9   13 1
    14   13   14 1
    15   14   15 1
    16   14   33 1
    17   14   34 1
    18   15   16 1
    19   15   17 1
    20   15   35 1
    21   16   21 1
    22   17   18 1
    23   17   19 1
    24   17   36 1
    25   18   37 1
    26   19   20 1
    27   19   21 1
    28   19   38 1
    29   20   39 1
    30   21   22 1
    31   21   40 1
    32   22   23 ar
    33   22   31 ar
    34   23   24 ar
    35   23   41 1
    36   24   25 ar
    37   25   26 ar
    38   25   31 ar
    39   26   27 2
    40   26   28 ar
    41   27   42 1
    42   28   29 ar
    43   28   44 1
    44   29   30 ar
    45   29   43 1
    46   30   31 ar
@<TRIPOS>SUBSTRUCTURE
     1 ATP         1 GROUP 0 A     ****
@<TRIPOS>MOLECULE
[[[3,4-dihydroxy-5-(6-imino-1~{H}-purin-9-yl)tetrahydrofuran-2-yl]methoxy-oxido-phosphoryl]oxy-oxido-phosphoryl] hydrogen phosphate
   44    46     1     0     0
SMALL
USER_CHARGES

@<TRIPOS>ATOM
      1 PG         10.2608    3.0552   -0.8074 P.3       1 ATP         1.5257
      2 O1G        11.3395    2.4437    0.0585 O.co2     1 ATP        -0.8737
      3 O2G        10.3793    4.4775   -1.3081 O.co2     1 ATP        -0.8737
      4 O3G        10.0054    2.0745   -2.0877 O.3       1 ATP        -0.7971
      5 PB          8.2613    3.5406    1.3162 P.3       1 ATP         1.6824
      6 O1B         9.0630    2.9929    2.4759 O.co2     1 ATP        -0.8925
      7 O2B         8.1038    5.0302    1.1070 O.co2     1 ATP        -0.8925
      8 O3B         8.8181    2.8738   -0.0662 O.3       1 ATP        -0.8047
      9 PA          6.3565    1.2771    1.3734 P.3       1 ATP         1.5908
     10 O1A         6.8004    0.6872    2.6945 O.co2     1 ATP        -0.8932
     11 O2A         6.7697    0.6406    0.0643 O.co2     1 ATP        -0.8932
     12 O3A         6.7801    2.8546    1.3338 O.3       1 ATP        -0.8088
     13 O5'         4.7294    1.4427    1.3696 O.3       1 ATP        -0.5646
     14 C5'         4.0922    1.9801    0.2227 C.3       1 ATP         0.2204
     15 C4'         2.5944    2.0310    0.4653 C.3       1 ATP         0.0965
     16 O4'         1.9327    2.5740   -0.6889 O.3       1 ATP        -0.3907
     17 C3'         1.9685    0.6634    0.6767 C.3       1 ATP         0.0763
     18 O3'         2.1425    0.1975    1.9977 O.3       1 ATP        -0.5884
     19 C2'         0.5176    0.9128    0.3099 C.3       1 ATP         0.0784
     20 O2'        -0.2103    1.4454    1.4152 O.3       1 ATP        -0.6085
     21 C1'         0.6219    1.9765   -0.7844 C.3       1 ATP         0.2186
     22 N9          0.4237    1.4496   -2.1357 N.pl3     1 ATP        -0.1699
     23 C8          1.4069    0.9710   -2.9662 C.ar      1 ATP         0.4438
     24 N7          0.9316    0.5623   -4.1260 N.2       1 ATP        -0.6280
     25 C5         -0.4120    0.7884   -4.0344 C.ar      1 ATP         0.2109
     26 C6         -1.4353    0.5283   -5.0204 C.ar      1 ATP         0.6180
     27 N6         -1.1199    0.0176   -6.1586 N.2       1 ATP        -0.8319
     28 N1         -2.6704    0.9095   -4.5147 N.pl3     1 ATP        -0.8664
     29 C2         -2.8863    1.4571   -3.2520 C.ar      1 ATP         0.5952
     30 N3         -1.9805    1.7017   -2.3442 N.2       1 ATP        -0.5599
     31 C4         -0.7561    1.3381   -2.8112 C.ar      1 ATP         0.0076
     32 HOG3        9.3286    2.3356   -2.7481 H         1 ATP         0.4101
     33 H5'1        4.4843    2.9854    0.0380 H         1 ATP         0.0364
     34 H5'2        4.3191    1.3446   -0.6392 H         1 ATP         0.0364
     35 H4'         2.3752    2.7029    1.3156 H         1 ATP         0.0945
     36 H3'         2.4336   -0.1217   -0.0015 H         1 ATP         0.0703
     37 HO3'        3.0987    0.1465    2.1461 H         1 ATP         0.4099
     38 H2'         0.0316    0.0155   -0.0339 H         1 ATP         0.0676
     39 HO2'       -0.1608    0.7921    2.1351 H         1 ATP         0.4291
     40 H1'        -0.1474    2.7798   -0.6651 H         1 ATP         0.0950
     41 H8          2.4466    0.9468   -2.6694 H         1 ATP         0.1135
     42 HN62       -1.9661   -0.0965   -6.7275 H         1 ATP         0.3588
     43 H2         -3.9481    1.6825   -3.0660 H         1 ATP         0.0302
     44 H44        -3.4814    0.7753   -5.1133 H         1 ATP         0.4215
@<TRIPOS>BOND
     1    1    2 2
     2    1    3 1
     3    1    4 1
     4    1    8 1
     5    4   32 1
     6    5    6 2
     7    5    7 1
     8    5    8 1
     9    5   12 1
    10    9   10 2
    11    9   11 1
    12    9   12 1
    13    9   13 1
    14   13   14 1
    15   14   15 1
    16   14   33 1
    17   14   34 1
    18   15   16 1
    19   15   17 1
    20   15   35 1
    21   16   21 1
    22   17   18 1
    23   17   19 1
    24   17   36 1
    25   18   37 1
    26   19   20 1
    27   19   21 1
    28   19   38 1
    29   20   39 1
    30   21   22 1
    31   21   40 1
    32   22   23 ar
    33   22   31 ar
    34   23   24 ar
    35   23   41 1
    36   24   25 ar
    37   25   26 ar
    38   25   31 ar
    39   26   27 2
    40   26   28 ar
    41   27   42 1
    42   28   29 ar
    43   28   44 1
    44   29   30 ar
    45   29   43 1
    46   30   31 ar
@<TRIPOS>SUBSTRUCTURE
     1 ATP         1 GROUP 0 A     ****
@<TRIPOS>MOLECULE
[[[3,4-dihydroxy-5-(6-imino-1~{H}-purin-9-yl)tetrahydrofuran-2-yl]methoxy-oxido-phosphoryl]oxy-oxido-phosphoryl] hydrogen phosphate
   44    46     1     0     0
SMALL
USER_CHARGES

@<TRIPOS>ATOM
      1 PG         -1.0650    7.6116   -1.9723 P.3       1 ATP         1.5257
      2 O1G        -1.5761    8.7082   -1.0647 O.co2     1 ATP        -0.8737
      3 O2G        -1.4523    7.5686   -3.4338 O.co2     1 ATP        -0.8737
      4 O3G         0.5638    7.5676   -1.8662 O.3       1 ATP        -0.7971
      5 PB         -2.8335    5.4406   -1.0225 P.3       1 ATP         1.6824
      6 O1B        -3.5873    6.2368    0.0193 O.co2     1 ATP        -0.8925
      7 O2B        -3.4638    5.0980   -2.3540 O.co2     1 ATP        -0.8925
      8 O3B        -1.3955    6.1641   -1.2947 O.3       1 ATP        -0.8047
      9 PA         -1.2907    2.9172   -0.9365 P.3       1 ATP         1.5908
     10 O1A         0.0789    3.5232   -1.1537 O.co2     1 ATP        -0.8932
     11 O2A        -2.0109    2.2091   -2.0634 O.co2     1 ATP        -0.8932
     12 O3A        -2.2840    4.0662   -0.3341 O.3       1 ATP        -0.8088
     13 O5'        -1.2434    1.9104    0.3515 O.3       1 ATP        -0.5646
     14 C5'        -0.8811    2.4285    1.6206 C.3       1 ATP         0.2204
     15 C4'        -0.1994    1.3333    2.4288 C.3       1 ATP         0.0965
     16 O4'        -1.1285    0.2356    2.5840 O.3       1 ATP        -0.3907
     17 C3'         1.0324    0.7610    1.7344 C.3       1 ATP         0.0763
     18 O3'         1.9175    0.2377    2.7247 O.3       1 ATP        -0.5884
     19 C2'         0.4468   -0.3802    0.9263 C.3       1 ATP         0.0784
     20 O2'         1.3993   -1.3703    0.5961 O.3       1 ATP        -0.6085
     21 C1'        -0.6159   -0.9100    1.8769 C.3       1 ATP         0.2186
     22 N9         -1.7127   -1.6108    1.2130 N.pl3     1 ATP        -0.1699
     23 C8         -2.8662   -1.0361    0.7388 C.ar      1 ATP         0.4438
     24 N7         -3.6774   -1.9166    0.1867 N.2       1 ATP        -0.6280
     25 C5         -3.0159   -3.1045    0.3122 C.ar      1 ATP         0.2109
     26 C6         -3.4377   -4.4169   -0.1199 C.ar      1 ATP         0.6180
     27 N6         -4.5720   -4.5691   -0.7080 N.2       1 ATP        -0.8319
     28 N1         -2.4600   -5.3463    0.2071 N.pl3     1 ATP        -0.8664
     29 C2         -1.2595   -5.0554    0.8515 C.ar      1 ATP         0.5952
     30 N3         -0.8555   -3.8803    1.2516 N.2       1 ATP        -0.5599
     31 C4         -1.7946   -2.9457    0.9448 C.ar      1 ATP         0.0076
     32 HOG3        1.0487    6.9031   -2.4007 H         1 ATP         0.4101
     33 H5'1       -0.2033    3.2760    1.4769 H         1 ATP         0.0364
     34 H5'2       -1.7841    2.7762    2.1323 H         1 ATP         0.0364
     35 H4'         0.0403    1.7078    3.4343 H         1 ATP         0.0945
     36 H3'         1.5907    1.4859    1.1353 H         1 ATP         0.0703
     37 HO3'        2.1521    0.9800    3.3017 H         1 ATP         0.4099
     38 H2'        -0.0017    0.0018    0.0005 H         1 ATP         0.0676
     39 HO2'        0.9369   -2.0558    0.0825 H         1 ATP         0.4291
     40 H1'        -0.1998   -1.6319    2.6178 H         1 ATP         0.0950
     41 H8         -3.0558    0.0252    0.8256 H         1 ATP         0.1135
     42 HN62       -4.7047   -5.5592   -0.9421 H         1 ATP         0.3588
     43 H2         -0.6372   -5.9505    1.0077 H         1 ATP         0.0302
     44 H44        -2.6338   -6.3155   -0.0469 H         1 ATP         0.4215
@<TRIPOS>BOND
     1    1    2 2
     2    1    3 1
     3    1    4 1
     4    1    8 1
     5    4   32 1
     6    5    6 2
     7    5    7 1
     8    5    8 1
     9    5   12 1
    10    9   10 2
    11    9   11 1
    12    9   12 1
    13    9   13 1
    14   13   14 1
    15   14   15 1
    16   14   33 1
    17   14   34 1
    18   15   16 1
    19   15   17 1
    20   15   35 1
    21   16   21 1
    22   17   18 1
    23   17   19 1
    24   17   36 1
    25   18   37 1
    26   19   20 1
    27   19   21 1
    28   19   38 1
    29   20   39 1
    30   21   22 1
    31   21   40 1
    32   22   23 ar
    33   22   31 ar
    34   23   24 ar
    35   23   41 1
    36   24   25 ar
    37   25   26 ar
    38   25   31 ar
    39   26   27 2
    40   26   28 ar
    41   27   42 1
    42   28   29 ar
    43   28   44 1
    44   29   30 ar
    45   29   43 1
    46   30   31 ar
@<TRIPOS>SUBSTRUCTURE
     1 ATP         1 GROUP 0 A     ****
@<TRIPOS>MOLECULE
[[[3,4-dihydroxy-5-(6-imino-1~{H}-purin-9-yl)tetrahydrofuran-2-yl]methoxy-oxido-phosphoryl]oxy-oxido-phosphoryl] hydrogen phosphate
   44    46     1     0     0
SMALL
USER_CHARGES

@<TRIPOS>ATOM
      1 PG         -0.7277    1.0160    6.8892 P.3       1 ATP         1.5257
      2 O1G        -1.1236    0.4170    5.5580 O.co2     1 ATP        -0.8737
      3 O2G        -1.7334    1.1503    8.0109 O.co2     1 ATP        -0.8737
      4 O3G         0.5745    0.2093    7.4543 O.3       1 ATP        -0.7971
      5 PB         -0.6704    3.8529    6.0572 P.3       1 ATP         1.6824
      6 O1B        -1.8924    4.1965    6.8794 O.co2     1 ATP        -0.8925
      7 O2B         0.4426    4.8561    5.8512 O.co2     1 ATP        -0.8925
      8 O3B        -0.0262    2.4669    6.6312 O.3       1 ATP        -0.8047
      9 PA         -1.9156    4.0918    3.3837 P.3       1 ATP         1.5908
     10 O1A        -0.9829    5.1484    2.8323 O.co2     1 ATP        -0.8932
     11 O2A        -3.3087    4.4562    3.8486 O.co2     1 ATP        -0.8932
     12 O3A        -1.1581    3.3049    4.5989 O.3       1 ATP        -0.8088
     13 O5'        -2.0401    2.8620    2.3128 O.3       1 ATP        -0.5646
     14 C5'        -0.8811    2.4285    1.6206 C.3       1 ATP         0.2204
     15 C4'        -0.1994    1.3333    2.4288 C.3       1 ATP         0.0965
     16 O4'        -1.1285    0.2356    2.5840 O.3       1 ATP        -0.3907
     17 C3'         1.0324    0.7610    1.7344 C.3       1 ATP         0.0763
     18 O3'         1.9175    0.2377    2.7247 O.3       1 ATP        -0.5884
     19 C2'         0.4468   -0.3802    0.9263 C.3       1 ATP         0.0784
     20 O2'         1.3993   -1.3703    0.5961 O.3       1 ATP        -0.6085
     21 C1'        -0.6159   -0.9100    1.8769 C.3       1 ATP         0.2186
     22 N9         -1.7127   -1.6108    1.2130 N.pl3     1 ATP        -0.1699
     23 C8         -1.7690   -2.9583    0.9549 C.ar      1 ATP         0.4438
     24 N7         -2.8827   -3.3076    0.3418 N.2       1 ATP        -0.6280
     25 C5         -3.5683   -2.1351    0.2017 C.ar      1 ATP         0.2109
     26 C6         -4.8617   -1.9185   -0.4044 C.ar      1 ATP         0.6180
     27 N6         -5.5166   -2.9094   -0.8993 N.2       1 ATP        -0.8319
     28 N1         -5.1837   -0.5701   -0.3344 N.pl3     1 ATP        -0.8664
     29 C2         -4.3821    0.4180    0.2330 C.ar      1 ATP         0.5952
     30 N3         -3.2117    0.2488    0.7860 N.2       1 ATP        -0.5599
     31 C4         -2.8672   -1.0657    0.7327 C.ar      1 ATP         0.0076
     32 HOG3        0.9545    0.4818    8.3166 H         1 ATP         0.4101
     33 H5'1       -1.1767    2.0502    0.6368 H         1 ATP         0.0364
     34 H5'2       -0.2080    3.2814    1.4876 H         1 ATP         0.0364
     35 H4'         0.0403    1.7078    3.4343 H         1 ATP         0.0945
     36 H3'         1.5907    1.4859    1.1353 H         1 ATP         0.0703
     37 HO3'        2.6839   -0.1150    2.2479 H         1 ATP         0.4099
     38 H2'        -0.0017    0.0018    0.0005 H         1 ATP         0.0676
     39 HO2'        2.0953   -0.9375    0.0709 H         1 ATP         0.4291
     40 H1'        -0.1998   -1.6319    2.6178 H         1 ATP         0.0950
     41 H8         -0.9697   -3.6300    1.2371 H         1 ATP         0.1135
     42 HN62       -6.4060   -2.5723   -1.2840 H         1 ATP         0.3588
     43 H2         -4.8409    1.4176    0.1757 H         1 ATP         0.0302
     44 H44        -6.0768   -0.2826   -0.7263 H         1 ATP         0.4215
@<TRIPOS>BOND
     1    1    2 2
     2    1    3 1
     3    1    4 1
     4    1    8 1
     5    4   32 1
     6    5    6 2
     7    5    7 1
     8    5    8 1
     9    5   12 1
    10    9   10 2
    11    9   11 1
    12    9   12 1
    13    9   13 1
    14   13   14 1
    15   14   15 1
    16   14   33 1
    17   14   34 1
    18   15   16 1
    19   15   17 1
    20   15   35 1
    21   16   21 1
    22   17   18 1
    23   17   19 1
    24   17   36 1
    25   18   37 1
    26   19   20 1
    27   19   21 1
    28   19   38 1
    29   20   39 1
    30   21   22 1
    31   21   40 1
    32   22   23 ar
    33   22   31 ar
    34   23   24 ar
    35   23   41 1
    36   24   25 ar
    37   25   26 ar
    38   25   31 ar
    39   26   27 2
    40   26   28 ar
    41   27   42 1
    42   28   29 ar
    43   28   44 1
    44   29   30 ar
    45   29   43 1
    46   30   31 ar
@<TRIPOS>SUBSTRUCTURE
     1 ATP         1 GROUP 0 A     ****
@<TRIPOS>MOLECULE
[[[3,4-dihydroxy-5-(6-imino-1~{H}-purin-9-yl)tetrahydrofuran-2-yl]methoxy-oxido-phosphoryl]oxy-oxido-phosphoryl] hydrogen phosphate
   44    46     1     0     0
SMALL
USER_CHARGES

@<TRIPOS>ATOM
      1 PG          7.3672    1.7067    3.9745 P.3       1 ATP         1.5257
      2 O1G         7.7522    0.8983    2.7556 O.co2     1 ATP        -0.8737
      3 O2G         6.1011    1.3995    4.7428 O.co2     1 ATP        -0.8737
      4 O3G         8.6221    1.6996    5.0191 O.3       1 ATP        -0.7971
      5 PB          6.4101    4.1270    2.5711 P.3       1 ATP         1.6824
      6 O1B         4.9698    3.8716    2.9557 O.co2     1 ATP        -0.8925
      7 O2B         6.9472    5.5345    2.4368 O.co2     1 ATP        -0.8925
      8 O3B         7.3788    3.2918    3.5859 O.3       1 ATP        -0.8047
      9 PA          6.1593    3.5241   -0.3148 P.3       1 ATP         1.5908
     10 O1A         6.6760    2.4087   -1.1975 O.co2     1 ATP        -0.8932
     11 O2A         6.3639    4.9731   -0.6998 O.co2     1 ATP        -0.8932
     12 O3A         6.7382    3.3079    1.1978 O.3       1 ATP        -0.8088
     13 O5'         4.5670    3.2937   -0.0211 O.3       1 ATP        -0.5646
     14 C5'         4.0922    1.9801    0.2227 C.3       1 ATP         0.2204
     15 C4'         2.5944    2.0310    0.4653 C.3       1 ATP         0.0965
     16 O4'         1.9327    2.5740   -0.6889 O.3       1 ATP        -0.3907
     17 C3'         1.9685    0.6634    0.6767 C.3       1 ATP         0.0763
     18 O3'         2.1425    0.1975    1.9977 O.3       1 ATP        -0.5884
     19 C2'         0.5176    0.9128    0.3099 C.3       1 ATP         0.0784
     20 O2'        -0.2103    1.4454    1.4152 O.3       1 ATP        -0.6085
     21 C1'         0.6219    1.9765   -0.7844 C.3       1 ATP         0.2186
     22 N9          0.4237    1.4496   -2.1357 N.pl3     1 ATP        -0.1699
     23 C8         -0.7779    1.3483   -2.7928 C.ar      1 ATP         0.4438
     24 N7         -0.6499    0.8341   -3.9999 N.2       1 ATP        -0.6280
     25 C5          0.6893    0.5965   -4.1212 C.ar      1 ATP         0.2109
     26 C6          1.4031    0.0342   -5.2443 C.ar      1 ATP         0.6180
     27 N6          0.7649   -0.3130   -6.3063 N.2       1 ATP        -0.8319
     28 N1          2.7566   -0.0326   -4.9437 N.pl3     1 ATP        -0.8664
     29 C2          3.3337    0.3796   -3.7446 C.ar      1 ATP         0.5952
     30 N3          2.7120    0.8899   -2.7163 N.2       1 ATP        -0.5599
     31 C4          1.3803    0.9684   -2.9805 C.ar      1 ATP         0.0076
     32 HOG3        8.5272    2.1852    5.8661 H         1 ATP         0.4101
     33 H5'1        4.3179    1.3548   -0.6470 H         1 ATP         0.0364
     34 H5'2        4.6083    1.5737    1.0983 H         1 ATP         0.0364
     35 H4'         2.3752    2.7029    1.3156 H         1 ATP         0.0945
     36 H3'         2.4336   -0.1217   -0.0015 H         1 ATP         0.0703
     37 HO3'        3.0987    0.1465    2.1461 H         1 ATP         0.4099
     38 H2'         0.0316    0.0155   -0.0339 H         1 ATP         0.0676
     39 HO2'       -0.1608    0.7921    2.1351 H         1 ATP         0.4291
     40 H1'        -0.1474    2.7798   -0.6651 H         1 ATP         0.0950
     41 H8         -1.7076    1.6648   -2.3398 H         1 ATP         0.1135
     42 HN62        1.4266   -0.6890   -6.9943 H         1 ATP         0.3588
     43 H2          4.4251    0.2326   -3.7294 H         1 ATP         0.0302
     44 H44         3.3750   -0.4100   -5.6572 H         1 ATP         0.4215
@<TRIPOS>BOND
     1    1    2 2
     2    1    3 1
     3    1    4 1
     4    1    8 1
     5    4   32 1
     6    5    6 2
     7    5    7 1
     8    5    8 1
     9    5   12 1
    10    9   10 2
    11    9   11 1
    12    9   12 1
    13    9   13 1
    14   13   14 1
    15   14   15 1
    16   14   33 1
    17   14   34 1
    18   15   16 1
    19   15   17 1
    20   15   35 1
    21   16   21 1
    22   17   18 1
    23   17   19 1
    24   17   36 1
    25   18   37 1
    26   19   20 1
    27   19   21 1
    28   19   38 1
    29   20   39 1
    30   21   22 1
    31   21   40 1
    32   22   23 ar
    33   22   31 ar
    34   23   24 ar
    35   23   41 1
    36   24   25 ar
    37   25   26 ar
    38   25   31 ar
    39   26   27 2
    40   26   28 ar
    41   27   42 1
    42   28   29 ar
    43   28   44 1
    44   29   30 ar
    45   29   43 1
    46   30   31 ar
@<TRIPOS>SUBSTRUCTURE
     1 ATP         1 GROUP 0 A     ****
@<TRIPOS>MOLECULE
[[[3,4-dihydroxy-5-(6-imino-1~{H}-purin-9-yl)tetrahydrofuran-2-yl]methoxy-oxido-phosphoryl]oxy-oxido-phosphoryl] hydrogen phosphate
   44    46     1     0     0
SMALL
USER_CHARGES

@<TRIPOS>ATOM
      1 PG          9.0098    2.9324    4.5800 P.3       1 ATP         1.5257
      2 O1G        10.1029    1.9486    4.2268 O.co2     1 ATP        -0.8737
      3 O2G         8.2140    2.7844    5.8576 O.co2     1 ATP        -0.8737
      4 O3G         9.6333    4.4406    4.5294 O.3       1 ATP        -0.7971
      5 PB          8.2727    3.3750    1.7508 P.3       1 ATP         1.6824
      6 O1B         8.7680    4.7993    1.6346 O.co2     1 ATP        -0.8925
      7 O2B         9.0531    2.2233    1.1575 O.co2     1 ATP        -0.8925
      8 O3B         7.9754    3.0509    3.3231 O.3       1 ATP        -0.8047
      9 PA          6.1593    3.5241   -0.3148 P.3       1 ATP         1.5908
     10 O1A         6.6760    2.4087   -1.1975 O.co2     1 ATP        -0.8932
     11 O2A         6.3639    4.9731   -0.6998 O.co2     1 ATP        -0.8932
     12 O3A         6.7382    3.3079    1.1978 O.3       1 ATP        -0.8088
     13 O5'         4.5670    3.2937   -0.0211 O.3       1 ATP        -0.5646
     14 C5'         4.0922    1.9801    0.2227 C.3       1 ATP         0.2204
     15 C4'         2.5944    2.0310    0.4653 C.3       1 ATP         0.0965
     16 O4'         1.9327    2.5740   -0.6889 O.3       1 ATP        -0.3907
     17 C3'         1.9685    0.6634    0.6767 C.3       1 ATP         0.0763
     18 O3'         2.1425    0.1975    1.9977 O.3       1 ATP        -0.5884
     19 C2'         0.5176    0.9128    0.3099 C.3       1 ATP         0.0784
     20 O2'        -0.2103    1.4454    1.4152 O.3       1 ATP        -0.6085
     21 C1'         0.6219    1.9765   -0.7844 C.3       1 ATP         0.2186
     22 N9          0.4237    1.4496   -2.1357 N.pl3     1 ATP        -0.1699
     23 C8          1.4069    0.9710   -2.9662 C.ar      1 ATP         0.4438
     24 N7          0.9316    0.5623   -4.1260 N.2       1 ATP        -0.6280
     25 C5         -0.4120    0.7884   -4.0344 C.ar      1 ATP         0.2109
     26 C6         -1.4353    0.5283   -5.0204 C.ar      1 ATP         0.6180
     27 N6         -1.1199    0.0176   -6.1586 N.2       1 ATP        -0.8319
     28 N1         -2.6704    0.9095   -4.5147 N.pl3     1 ATP        -0.8664
     29 C2         -2.8863    1.4571   -3.2520 C.ar      1 ATP         0.5952
     30 N3         -1.9805    1.7017   -2.3442 N.2       1 ATP        -0.5599
     31 C4         -0.7561    1.3381   -2.8112 C.ar      1 ATP         0.0076
     32 HOG3        9.0437    5.1968    4.7363 H         1 ATP         0.4101
     33 H5'1        4.3179    1.3548   -0.6470 H         1 ATP         0.0364
     34 H5'2        4.6083    1.5737    1.0983 H         1 ATP         0.0364
     35 H4'         2.3752    2.7029    1.3156 H         1 ATP         0.0945
     36 H3'         2.4336   -0.1217   -0.0015 H         1 ATP         0.0703
     37 HO3'        3.0987    0.1465    2.1461 H         1 ATP         0.4099
     38 H2'         0.0316    0.0155   -0.0339 H         1 ATP         0.0676
     39 HO2'       -0.1608    0.7921    2.1351 H         1 ATP         0.4291
     40 H1'        -0.1474    2.7798   -0.6651 H         1 ATP         0.0950
     41 H8          2.4466    0.9468   -2.6694 H         1 ATP         0.1135
     42 HN62       -1.9661   -0.0965   -6.7275 H         1 ATP         0.3588
     43 H2         -3.9481    1.6825   -3.0660 H         1 ATP         0.0302
     44 H44        -3.4814    0.7753   -5.1133 H         1 ATP         0.4215
@<TRIPOS>BOND
     1    1    2 2
     2    1    3 1
     3    1    4 1
     4    1    8 1
     5    4   32 1
     6    5    6 2
     7    5    7 1
     8    5    8 1
     9    5   12 1
    10    9   10 2
    11    9   11 1
    12    9   12 1
    13    9   13 1
    14   13   14 1
    15   14   15 1
    16   14   33 1
    17   14   34 1
    18   15   16 1
    19   15   17 1
    20   15   35 1
    21   16   21 1
    22   17   18 1
    23   17   19 1
    24   17   36 1
    25   18   37 1
    26   19   20 1
    27   19   21 1
    28   19   38 1
    29   20   39 1
    30   21   22 1
    31   21   40 1
    32   22   23 ar
    33   22   31 ar
    34   23   24 ar
    35   23   41 1
    36   24   25 ar
    37   25   26 ar
    38   25   31 ar
    39   26   27 2
    40   26   28 ar
    41   27   42 1
    42   28   29 ar
    43   28   44 1
    44   29   30 ar
    45   29   43 1
    46   30   31 ar
@<TRIPOS>SUBSTRUCTURE
     1 ATP         1 GROUP 0 A     ****
@<TRIPOS>MOLECULE
[[[3,4-dihydroxy-5-(6-imino-1~{H}-purin-9-yl)tetrahydrofuran-2-yl]methoxy-oxido-phosphoryl]oxy-oxido-phosphoryl] hydrogen phosphate
   44    46     1     0     0
SMALL
USER_CHARGES

@<TRIPOS>ATOM
      1 PG         -3.2548    5.6678   -3.2927 P.3       1 ATP         1.5257
      2 O1G        -3.2543    4.4398   -4.1755 O.co2     1 ATP        -0.8737
      3 O2G        -2.7126    6.9871   -3.7959 O.co2     1 ATP        -0.8737
      4 O3G        -4.7720    5.9081   -2.7392 O.3       1 ATP        -0.7971
      5 PB         -2.3895    6.1938   -0.5145 P.3       1 ATP         1.6824
      6 O1B        -1.5014    7.3837   -0.8027 O.co2     1 ATP        -0.8925
      7 O2B        -3.7630    6.3705    0.0935 O.co2     1 ATP        -0.8925
      8 O3B        -2.5303    5.3040   -1.8762 O.3       1 ATP        -0.8047
      9 PA         -0.0889    4.4444    0.1193 P.3       1 ATP         1.5908
     10 O1A         0.9661    5.5282    0.1728 O.co2     1 ATP        -0.8932
     11 O2A        -0.2001    3.5318   -1.0825 O.co2     1 ATP        -0.8932
     12 O3A        -1.5516    5.1216    0.3871 O.3       1 ATP        -0.8088
     13 O5'         0.0178    3.5131    1.4595 O.3       1 ATP        -0.5646
     14 C5'        -0.8811    2.4285    1.6206 C.3       1 ATP         0.2204
     15 C4'        -0.1994    1.3333    2.4288 C.3       1 ATP         0.0965
     16 O4'        -1.1285    0.2356    2.5840 O.3       1 ATP        -0.3907
     17 C3'         1.0324    0.7610    1.7344 C.3       1 ATP         0.0763
     18 O3'         1.9175    0.2377    2.7247 O.3       1 ATP        -0.5884
     19 C2'         0.4468   -0.3802    0.9263 C.3       1 ATP         0.0784
     20 O2'         1.3993   -1.3703    0.5961 O.3       1 ATP        -0.6085
     21 C1'        -0.6159   -0.9100    1.8769 C.3       1 ATP         0.2186
     22 N9         -1.7127   -1.6108    1.2130 N.pl3     1 ATP        -0.1699
     23 C8         -2.0868   -2.9137    1.4327 C.ar      1 ATP         0.4438
     24 N7         -3.1125   -3.2756    0.6878 N.2       1 ATP        -0.6280
     25 C5         -3.4079   -2.1580   -0.0391 C.ar      1 ATP         0.2109
     26 C6         -4.4483   -1.9775   -1.0249 C.ar      1 ATP         0.6180
     27 N6         -5.2418   -2.9492   -1.3113 N.2       1 ATP        -0.8319
     28 N1         -4.3937   -0.6823   -1.5211 N.pl3     1 ATP        -0.8664
     29 C2         -3.4770    0.2901   -1.1271 C.ar      1 ATP         0.5952
     30 N3         -2.5289    0.1525   -0.2402 N.2       1 ATP        -0.5599
     31 C4         -2.5564   -1.1096    0.2655 C.ar      1 ATP         0.0076
     32 HOG3       -4.9376    6.6730   -2.1479 H         1 ATP         0.4101
     33 H5'1       -1.7771    2.7849    2.1387 H         1 ATP         0.0364
     34 H5'2       -1.1654    2.0541    0.6320 H         1 ATP         0.0364
     35 H4'         0.0403    1.7078    3.4343 H         1 ATP         0.0945
     36 H3'         1.5907    1.4859    1.1353 H         1 ATP         0.0703
     37 HO3'        2.1521    0.9800    3.3017 H         1 ATP         0.4099
     38 H2'        -0.0017    0.0018    0.0005 H         1 ATP         0.0676
     39 HO2'        0.9369   -2.0558    0.0825 H         1 ATP         0.4291
     40 H1'        -0.1998   -1.6319    2.6178 H         1 ATP         0.0950
     41 H8         -1.5740   -3.5449    2.1457 H         1 ATP         0.1135
     42 HN62       -5.9117   -2.6433   -2.0256 H         1 ATP         0.3588
     43 H2         -3.6225    1.2454   -1.6553 H         1 ATP         0.0302
     44 H44        -5.0794   -0.4231   -2.2258 H         1 ATP         0.4215
@<TRIPOS>BOND
     1    1    2 2
     2    1    3 1
     3    1    4 1
     4    1    8 1
     5    4   32 1
     6    5    6 2
     7    5    7 1
     8    5    8 1
     9    5   12 1
    10    9   10 2
    11    9   11 1
    12    9   12 1
    13    9   13 1
    14   13   14 1
    15   14   15 1
    16   14   33 1
    17   14   34 1
    18   15   16 1
    19   15   17 1
    20   15   35 1
    21   16   21 1
    22   17   18 1
    23   17   19 1
    24   17   36 1
    25   18   37 1
    26   19   20 1
    27   19   21 1
    28   19   38 1
    29   20   39 1
    30   21   22 1
    31   21   40 1
    32   22   23 ar
    33   22   31 ar
    34   23   24 ar
    35   23   41 1
    36   24   25 ar
    37   25   26 ar
    38   25   31 ar
    39   26   27 2
    40   26   28 ar
    41   27   42 1
    42   28   29 ar
    43   28   44 1
    44   29   30 ar
    45   29   43 1
    46   30   31 ar
@<TRIPOS>SUBSTRUCTURE
     1 ATP         1 GROUP 0 A     ****
@<TRIPOS>MOLECULE
[[[3,4-dihydroxy-5-(6-imino-1~{H}-purin-9-yl)tetrahydrofuran-2-yl]methoxy-oxido-phosphoryl]oxy-oxido-phosphoryl] hydrogen phosphate
   44    46     1     0     0
SMALL
USER_CHARGES

@<TRIPOS>ATOM
      1 PG          7.7406   -3.1068   -1.9882 P.3       1 ATP         1.5257
      2 O1G         6.6480   -3.7526   -2.8106 O.co2     1 ATP        -0.8737
      3 O2G         8.6481   -3.9397   -1.1104 O.co2     1 ATP        -0.8737
      4 O3G         8.6681   -2.1993   -2.9792 O.3       1 ATP        -0.7971
      5 PB          7.8236   -0.7942   -0.1473 P.3       1 ATP         1.6824
      6 O1B         8.4565   -1.4987    1.0319 O.co2     1 ATP        -0.8925
      7 O2B         8.6281    0.1351   -1.0286 O.co2     1 ATP        -0.8925
      8 O3B         7.0919   -1.9076   -1.0910 O.3       1 ATP        -0.8047
      9 PA          6.3565    1.2771    1.3734 P.3       1 ATP         1.5908
     10 O1A         6.9879    2.4828    0.7118 O.co2     1 ATP        -0.8932
     11 O2A         6.7839    0.8423    2.7584 O.co2     1 ATP        -0.8932
     12 O3A         6.4914   -0.0042    0.3685 O.3       1 ATP        -0.8088
     13 O5'         4.7294    1.4427    1.3696 O.3       1 ATP        -0.5646
     14 C5'         4.0922    1.9801    0.2227 C.3       1 ATP         0.2204
     15 C4'         2.5944    2.0310    0.4653 C.3       1 ATP         0.0965
     16 O4'         1.9327    2.5740   -0.6889 O.3       1 ATP        -0.3907
     17 C3'         1.9685    0.6634    0.6767 C.3       1 ATP         0.0763
     18 O3'         2.1425    0.1975    1.9977 O.3       1 ATP        -0.5884
     19 C2'         0.5176    0.9128    0.3099 C.3       1 ATP         0.0784
     20 O2'        -0.2103    1.4454    1.4152 O.3       1 ATP        -0.6085
     21 C1'         0.6219    1.9765   -0.7844 C.3       1 ATP         0.2186
     22 N9          0.4237    1.4496   -2.1357 N.pl3     1 ATP        -0.1699
     23 C8          1.4069    0.9710   -2.9662 C.ar      1 ATP         0.4438
     24 N7          0.9316    0.5623   -4.1260 N.2       1 ATP        -0.6280
     25 C5         -0.4120    0.7884   -4.0344 C.ar      1 ATP         0.2109
     26 C6         -1.4353    0.5283   -5.0204 C.ar      1 ATP         0.6180
     27 N6         -1.1199    0.0176   -6.1586 N.2       1 ATP        -0.8319
     28 N1         -2.6704    0.9095   -4.5147 N.pl3     1 ATP        -0.8664
     29 C2         -2.8863    1.4571   -3.2520 C.ar      1 ATP         0.5952
     30 N3         -1.9805    1.7017   -2.3442 N.2       1 ATP        -0.5599
     31 C4         -0.7561    1.3381   -2.8112 C.ar      1 ATP         0.0076
     32 HOG3        9.4265   -1.7119   -2.5924 H         1 ATP         0.4101
     33 H5'1        4.4843    2.9854    0.0380 H         1 ATP         0.0364
     34 H5'2        4.3191    1.3446   -0.6392 H         1 ATP         0.0364
     35 H4'         2.3752    2.7029    1.3156 H         1 ATP         0.0945
     36 H3'         2.4336   -0.1217   -0.0015 H         1 ATP         0.0703
     37 HO3'        3.0987    0.1465    2.1461 H         1 ATP         0.4099
     38 H2'         0.0316    0.0155   -0.0339 H         1 ATP         0.0676
     39 HO2'       -0.1608    0.7921    2.1351 H         1 ATP         0.4291
     40 H1'        -0.1474    2.7798   -0.6651 H         1 ATP         0.0950
     41 H8          2.4466    0.9468   -2.6694 H         1 ATP         0.1135
     42 HN62       -1.9661   -0.0965   -6.7275 H         1 ATP         0.3588
     43 H2         -3.9481    1.6825   -3.0660 H         1 ATP         0.0302
     44 H44        -3.4814    0.7753   -5.1133 H         1 ATP         0.4215
@<TRIPOS>BOND
     1    1    2 2
     2    1    3 1
     3    1    4 1
     4    1    8 1
     5    4   32 1
     6    5    6 2
     7    5    7 1
     8    5    8 1
     9    5   12 1
    10    9   10 2
    11    9   11 1
    12    9   12 1
    13    9   13 1
    14   13   14 1
    15   14   15 1
    16   14   33 1
    17   14   34 1
    18   15   16 1
    19   15   17 1
    20   15   35 1
    21   16   21 1
    22   17   18 1
    23   17   19 1
    24   17   36 1
    25   18   37 1
    26   19   20 1
    27   19   21 1
    28   19   38 1
    29   20   39 1
    30   21   22 1
    31   21   40 1
    32   22   23 ar
    33   22   31 ar
    34   23   24 ar
    35   23   41 1
    36   24   25 ar
    37   25   26 ar
    38   25   31 ar
    39   26   27 2
    40   26   28 ar
    41   27   42 1
    42   28   29 ar
    43   28   44 1
    44   29   30 ar
    45   29   43 1
    46   30   31 ar
@<TRIPOS>SUBSTRUCTURE
     1 ATP         1 GROUP 0 A     ****
@<TRIPOS>MOLECULE
[[[3,4-dihydroxy-5-(6-imino-1~{H}-purin-9-yl)tetrahydrofuran-2-yl]methoxy-oxido-phosphoryl]oxy-oxido-phosphoryl] hydrogen phosphate
   44    46     1     0     0
SMALL
USER_CHARGES

@<TRIPOS>ATOM
      1 PG          4.5272    6.0959   -5.5058 P.3       1 ATP         1.5257
      2 O1G         5.1264    7.4216   -5.0923 O.co2     1 ATP        -0.8737
      3 O2G         3.2465    6.0384   -6.3084 O.co2     1 ATP        -0.8737
      4 O3G         5.6697    5.2325   -6.2902 O.3       1 ATP        -0.7971
      5 PB          3.9229    3.5836   -4.0682 P.3       1 ATP         1.6824
      6 O1B         2.4740    3.4580   -4.4837 O.co2     1 ATP        -0.8925
      7 O2B         4.9964    2.7268   -4.7014 O.co2     1 ATP        -0.8925
      8 O3B         4.3669    5.1504   -4.1852 O.3       1 ATP        -0.8047
      9 PA          5.2953    3.6262   -1.4472 P.3       1 ATP         1.5908
     10 O1A         5.7125    5.0807   -1.4737 O.co2     1 ATP        -0.8932
     11 O2A         6.2971    2.5288   -1.7332 O.co2     1 ATP        -0.8932
     12 O3A         4.0174    3.4280   -2.4460 O.3       1 ATP        -0.8088
     13 O5'         4.5670    3.2937   -0.0211 O.3       1 ATP        -0.5646
     14 C5'         4.0922    1.9801    0.2227 C.3       1 ATP         0.2204
     15 C4'         2.5944    2.0310    0.4653 C.3       1 ATP         0.0965
     16 O4'         1.9327    2.5740   -0.6889 O.3       1 ATP        -0.3907
     17 C3'         1.9685    0.6634    0.6767 C.3       1 ATP         0.0763
     18 O3'         2.1425    0.1975    1.9977 O.3       1 ATP        -0.5884
     19 C2'         0.5176    0.9128    0.3099 C.3       1 ATP         0.0784
     20 O2'        -0.2103    1.4454    1.4152 O.3       1 ATP        -0.6085
     21 C1'         0.6219    1.9765   -0.7844 C.3       1 ATP         0.2186
     22 N9          0.4237    1.4496   -2.1357 N.pl3     1 ATP        -0.1699
     23 C8          1.4069    0.9710   -2.9662 C.ar      1 ATP         0.4438
     24 N7          0.9316    0.5623   -4.1260 N.2       1 ATP        -0.6280
     25 C5         -0.4120    0.7884   -4.0344 C.ar      1 ATP         0.2109
     26 C6         -1.4353    0.5283   -5.0204 C.ar      1 ATP         0.6180
     27 N6         -1.1199    0.0176   -6.1586 N.2       1 ATP        -0.8319
     28 N1         -2.6704    0.9095   -4.5147 N.pl3     1 ATP        -0.8664
     29 C2         -2.8863    1.4571   -3.2520 C.ar      1 ATP         0.5952
     30 N3         -1.9805    1.7017   -2.3442 N.2       1 ATP        -0.5599
     31 C4         -0.7561    1.3381   -2.8112 C.ar      1 ATP         0.0076
     32 HOG3        5.4338    4.3410   -6.6244 H         1 ATP         0.4101
     33 H5'1        4.3179    1.3548   -0.6470 H         1 ATP         0.0364
     34 H5'2        4.6083    1.5737    1.0983 H         1 ATP         0.0364
     35 H4'         2.3752    2.7029    1.3156 H         1 ATP         0.0945
     36 H3'         2.4336   -0.1217   -0.0015 H         1 ATP         0.0703
     37 HO3'        3.0987    0.1465    2.1461 H         1 ATP         0.4099
     38 H2'         0.0316    0.0155   -0.0339 H         1 ATP         0.0676
     39 HO2'       -0.1608    0.7921    2.1351 H         1 ATP         0.4291
     40 H1'        -0.1474    2.7798   -0.6651 H         1 ATP         0.0950
     41 H8          2.4466    0.9468   -2.6694 H         1 ATP         0.1135
     42 HN62       -1.9661   -0.0965   -6.7275 H         1 ATP         0.3588
     43 H2         -3.9481    1.6825   -3.0660 H         1 ATP         0.0302
     44 H44        -3.4814    0.7753   -5.1133 H         1 ATP         0.4215
@<TRIPOS>BOND
     1    1    2 2
     2    1    3 1
     3    1    4 1
     4    1    8 1
     5    4   32 1
     6    5    6 2
     7    5    7 1
     8    5    8 1
     9    5   12 1
    10    9   10 2
    11    9   11 1
    12    9   12 1
    13    9   13 1
    14   13   14 1
    15   14   15 1
    16   14   33 1
    17   14   34 1
    18   15   16 1
    19   15   17 1
    20   15   35 1
    21   16   21 1
    22   17   18 1
    23   17   19 1
    24   17   36 1
    25   18   37 1
    26   19   20 1
    27   19   21 1
    28   19   38 1
    29   20   39 1
    30   21   22 1
    31   21   40 1
    32   22   23 ar
    33   22   31 ar
    34   23   24 ar
    35   23   41 1
    36   24   25 ar
    37   25   26 ar
    38   25   31 ar
    39   26   27 2
    40   26   28 ar
    41   27   42 1
    42   28   29 ar
    43   28   44 1
    44   29   30 ar
    45   29   43 1
    46   30   31 ar
@<TRIPOS>SUBSTRUCTURE
     1 ATP         1 GROUP 0 A     ****
@<TRIPOS>MOLECULE
[[[3,4-dihydroxy-5-(6-imino-1~{H}-purin-9-yl)tetrahydrofuran-2-yl]methoxy-oxido-phosphoryl]oxy-oxido-phosphoryl] hydrogen phosphate
   44    46     1     0     0
SMALL
USER_CHARGES

@<TRIPOS>ATOM
      1 PG          0.8259    8.0584    5.5367 P.3       1 ATP         1.5257
      2 O1G        -0.4204    8.9002    5.6965 O.co2     1 ATP        -0.8737
      3 O2G         2.1038    8.6571    4.9924 O.co2     1 ATP        -0.8737
      4 O3G         1.1562    7.3440    6.9673 O.3       1 ATP        -0.7971
      5 PB         -0.7129    5.6110    4.9154 P.3       1 ATP         1.6824
      6 O1B        -0.4054    4.8521    6.1871 O.co2     1 ATP        -0.8925
      7 O2B        -2.0580    6.2685    4.7013 O.co2     1 ATP        -0.8925
      8 O3B         0.4578    6.7230    4.6735 O.3       1 ATP        -0.8047
      9 PA         -0.3962    4.9846    2.0409 P.3       1 ATP         1.5908
     10 O1A         0.7136    5.9719    1.7515 O.co2     1 ATP        -0.8932
     11 O2A        -1.8200    5.2757    1.6193 O.co2     1 ATP        -0.8932
     12 O3A        -0.3932    4.6446    3.6391 O.3       1 ATP        -0.8088
     13 O5'         0.0178    3.5131    1.4595 O.3       1 ATP        -0.5646
     14 C5'        -0.8811    2.4285    1.6206 C.3       1 ATP         0.2204
     15 C4'        -0.1994    1.3333    2.4288 C.3       1 ATP         0.0965
     16 O4'        -1.1285    0.2356    2.5840 O.3       1 ATP        -0.3907
     17 C3'         1.0324    0.7610    1.7344 C.3       1 ATP         0.0763
     18 O3'         1.9175    0.2377    2.7247 O.3       1 ATP        -0.5884
     19 C2'         0.4468   -0.3802    0.9263 C.3       1 ATP         0.0784
     20 O2'         1.3993   -1.3703    0.5961 O.3       1 ATP        -0.6085
     21 C1'        -0.6159   -0.9100    1.8769 C.3       1 ATP         0.2186
     22 N9         -1.7127   -1.6108    1.2130 N.pl3     1 ATP        -0.1699
     23 C8         -2.5485   -1.0808    0.2609 C.ar      1 ATP         0.4438
     24 N7         -3.4476   -1.9486   -0.1593 N.2       1 ATP        -0.6280
     25 C5         -3.1762   -3.0816    0.5530 C.ar      1 ATP         0.2109
     26 C6         -3.8510   -4.3579    0.5006 C.ar      1 ATP         0.6180
     27 N6         -4.8468   -4.5293   -0.2961 N.2       1 ATP        -0.8319
     28 N1         -3.2499   -5.2342    1.3937 N.pl3     1 ATP        -0.8664
     29 C2         -2.1646   -4.9275    2.2116 C.ar      1 ATP         0.5952
     30 N3         -1.5382   -3.7840    2.2778 N.2       1 ATP        -0.5599
     31 C4         -2.1054   -2.9018    1.4120 C.ar      1 ATP         0.0076
     32 HOG3        1.9419    6.7598    7.0270 H         1 ATP         0.4101
     33 H5'1       -1.7771    2.7849    2.1387 H         1 ATP         0.0364
     34 H5'2       -1.1654    2.0541    0.6320 H         1 ATP         0.0364
     35 H4'         0.0403    1.7078    3.4343 H         1 ATP         0.0945
     36 H3'         1.5907    1.4859    1.1353 H         1 ATP         0.0703
     37 HO3'        2.1521    0.9800    3.3017 H         1 ATP         0.4099
     38 H2'        -0.0017    0.0018    0.0005 H         1 ATP         0.0676
     39 HO2'        2.0953   -0.9375    0.0709 H         1 ATP         0.4291
     40 H1'        -0.1998   -1.6319    2.6178 H         1 ATP         0.0950
     41 H8         -2.4515   -0.0599   -0.0829 H         1 ATP         0.1135
     42 HN62       -5.1990   -5.4882   -0.2005 H         1 ATP         0.3588
     43 H2         -1.8555   -5.7783    2.8388 H         1 ATP         0.0302
     44 H44        -3.6312   -6.1750    1.4526 H         1 ATP         0.4215
@<TRIPOS>BOND
     1    1    2 2
     2    1    3 1
     3    1    4 1
     4    1    8 1
     5    4   32 1
     6    5    6 2
     7    5    7 1
     8    5    8 1
     9    5   12 1
    10    9   10 2
    11    9   11 1
    12    9   12 1
    13    9   13 1
    14   13   14 1
    15   14   15 1
    16   14   33 1
    17   14   34 1
    18   15   16 1
    19   15   17 1
    20   15   35 1
    21   16   21 1
    22   17   18 1
    23   17   19 1
    24   17   36 1
    25   18   37 1
    26   19   20 1
    27   19   21 1
    28   19   38 1
    29   20   39 1
    30   21   22 1
    31   21   40 1
    32   22   23 ar
    33   22   31 ar
    34   23   24 ar
    35   23   41 1
    36   24   25 ar
    37   25   26 ar
    38   25   31 ar
    39   26   27 2
    40   26   28 ar
    41   27   42 1
    42   28   29 ar
    43   28   44 1
    44   29   30 ar
    45   29   43 1
    46   30   31 ar
@<TRIPOS>SUBSTRUCTURE
     1 ATP         1 GROUP 0 A     ****
@<TRIPOS>MOLECULE
[[[3,4-dihydroxy-5-(6-imino-1~{H}-purin-9-yl)tetrahydrofuran-2-yl]methoxy-oxido-phosphoryl]oxy-oxido-phosphoryl] hydrogen phosphate
   44    46     1     0     0
SMALL
USER_CHARGES

@<TRIPOS>ATOM
      1 PG         10.0257    1.1040   -1.8497 P.3       1 ATP         1.5257
      2 O1G        10.0488    0.2236   -3.0793 O.co2     1 ATP        -0.8737
      3 O2G        10.5245    0.5911   -0.5171 O.co2     1 ATP        -0.8737
      4 O3G        10.8055    2.4965   -2.1941 O.3       1 ATP        -0.7971
      5 PB          7.5743    2.5160   -2.7100 P.3       1 ATP         1.6824
      6 O1B         8.2062    3.8603   -2.9947 O.co2     1 ATP        -0.8925
      7 O2B         7.1864    1.5793   -3.8323 O.co2     1 ATP        -0.8925
      8 O3B         8.5210    1.7055   -1.6553 O.3       1 ATP        -0.8047
      9 PA          6.1593    3.5241   -0.3148 P.3       1 ATP         1.5908
     10 O1A         6.4223    4.9968   -0.5434 O.co2     1 ATP        -0.8932
     11 O2A         6.9473    2.7489    0.7186 O.co2     1 ATP        -0.8932
     12 O3A         6.2776    2.7414   -1.7442 O.3       1 ATP        -0.8088
     13 O5'         4.5670    3.2937   -0.0211 O.3       1 ATP        -0.5646
     14 C5'         4.0922    1.9801    0.2227 C.3       1 ATP         0.2204
     15 C4'         2.5944    2.0310    0.4653 C.3       1 ATP         0.0965
     16 O4'         1.9327    2.5740   -0.6889 O.3       1 ATP        -0.3907
     17 C3'         1.9685    0.6634    0.6767 C.3       1 ATP         0.0763
     18 O3'         2.1425    0.1975    1.9977 O.3       1 ATP        -0.5884
     19 C2'         0.5176    0.9128    0.3099 C.3       1 ATP         0.0784
     20 O2'        -0.2103    1.4454    1.4152 O.3       1 ATP        -0.6085
     21 C1'         0.6219    1.9765   -0.7844 C.3       1 ATP         0.2186
     22 N9          0.4237    1.4496   -2.1357 N.pl3     1 ATP        -0.1699
     23 C8          1.4069    0.9710   -2.9662 C.ar      1 ATP         0.4438
     24 N7          0.9316    0.5623   -4.1260 N.2       1 ATP        -0.6280
     25 C5         -0.4120    0.7884   -4.0344 C.ar      1 ATP         0.2109
     26 C6         -1.4353    0.5283   -5.0204 C.ar      1 ATP         0.6180
     27 N6         -1.1199    0.0176   -6.1586 N.2       1 ATP        -0.8319
     28 N1         -2.6704    0.9095   -4.5147 N.pl3     1 ATP        -0.8664
     29 C2         -2.8863    1.4571   -3.2520 C.ar      1 ATP         0.5952
     30 N3         -1.9805    1.7017   -2.3442 N.2       1 ATP        -0.5599
     31 C4         -0.7561    1.3381   -2.8112 C.ar      1 ATP         0.0076
     32 HOG3       10.8765    3.1778   -1.4919 H         1 ATP         0.4101
     33 H5'1        4.3179    1.3548   -0.6470 H         1 ATP         0.0364
     34 H5'2        4.6083    1.5737    1.0983 H         1 ATP         0.0364
     35 H4'         2.3752    2.7029    1.3156 H         1 ATP         0.0945
     36 H3'         2.4336   -0.1217   -0.0015 H         1 ATP         0.0703
     37 HO3'        3.0987    0.1465    2.1461 H         1 ATP         0.4099
     38 H2'         0.0316    0.0155   -0.0339 H         1 ATP         0.0676
     39 HO2'       -0.1608    0.7921    2.1351 H         1 ATP         0.4291
     40 H1'        -0.1474    2.7798   -0.6651 H         1 ATP         0.0950
     41 H8          2.4466    0.9468   -2.6694 H         1 ATP         0.1135
     42 HN62       -1.9661   -0.0965   -6.7275 H         1 ATP         0.3588
     43 H2         -3.9481    1.6825   -3.0660 H         1 ATP         0.0302
     44 H44        -3.4814    0.7753   -5.1133 H         1 ATP         0.4215
@<TRIPOS>BOND
     1    1    2 2
     2    1    3 1
     3    1    4 1
     4    1    8 1
     5    4   32 1
     6    5    6 2
     7    5    7 1
     8    5    8 1
     9    5   12 1
    10    9   10 2
    11    9   11 1
    12    9   12 1
    13    9   13 1
    14   13   14 1
    15   14   15 1
    16   14   33 1
    17   14   34 1
    18   15   16 1
    19   15   17 1
    20   15   35 1
    21   16   21 1
    22   17   18 1
    23   17   19 1
    24   17   36 1
    25   18   37 1
    26   19   20 1
    27   19   21 1
    28   19   38 1
    29   20   39 1
    30   21   22 1
    31   21   40 1
    32   22   23 ar
    33   22   31 ar
    34   23   24 ar
    35   23   41 1
    36   24   25 ar
    37   25   26 ar
    38   25   31 ar
    39   26   27 2
    40   26   28 ar
    41   27   42 1
    42   28   29 ar
    43   28   44 1
    44   29   30 ar
    45   29   43 1
    46   30   31 ar
@<TRIPOS>SUBSTRUCTURE
     1 ATP         1 GROUP 0 A     ****
@<TRIPOS>MOLECULE
[[[3,4-dihydroxy-5-(6-imino-1~{H}-purin-9-yl)tetrahydrofuran-2-yl]methoxy-oxido-phosphoryl]oxy-oxido-phosphoryl] hydrogen phosphate
   44    46     1     0     0
SMALL
USER_CHARGES

@<TRIPOS>ATOM
      1 PG         -3.7637    7.6606    2.4043 P.3       1 ATP         1.5257
      2 O1G        -3.2771    9.0554    2.0800 O.co2     1 ATP        -0.8737
      3 O2G        -3.4530    7.0197    3.7387 O.co2     1 ATP        -0.8737
      4 O3G        -5.3781    7.6061    2.1663 O.3       1 ATP        -0.7971
      5 PB         -1.8095    6.1585    0.7708 P.3       1 ATP         1.6824
      6 O1B        -1.9418    5.0848   -0.2862 O.co2     1 ATP        -0.8925
      7 O2B        -0.9477    7.3803    0.5428 O.co2     1 ATP        -0.8925
      8 O3B        -3.3040    6.6468    1.2107 O.3       1 ATP        -0.8047
      9 PA          0.0330    4.7083    2.5757 P.3       1 ATP         1.5908
     10 O1A        -0.1146    4.1098    3.9578 O.co2     1 ATP        -0.8932
     11 O2A         1.1815    5.6399    2.2548 O.co2     1 ATP        -0.8932
     12 O3A        -1.3630    5.4574    2.1758 O.3       1 ATP        -0.8088
     13 O5'         0.0178    3.5131    1.4595 O.3       1 ATP        -0.5646
     14 C5'        -0.8811    2.4285    1.6206 C.3       1 ATP         0.2204
     15 C4'        -0.1994    1.3333    2.4288 C.3       1 ATP         0.0965
     16 O4'        -1.1285    0.2356    2.5840 O.3       1 ATP        -0.3907
     17 C3'         1.0324    0.7610    1.7344 C.3       1 ATP         0.0763
     18 O3'         1.9175    0.2377    2.7247 O.3       1 ATP        -0.5884
     19 C2'         0.4468   -0.3802    0.9263 C.3       1 ATP         0.0784
     20 O2'         1.3993   -1.3703    0.5961 O.3       1 ATP        -0.6085
     21 C1'        -0.6159   -0.9100    1.8769 C.3       1 ATP         0.2186
     22 N9         -1.7127   -1.6108    1.2130 N.pl3     1 ATP        -0.1699
     23 C8         -2.5485   -1.0808    0.2609 C.ar      1 ATP         0.4438
     24 N7         -3.4476   -1.9486   -0.1593 N.2       1 ATP        -0.6280
     25 C5         -3.1762   -3.0816    0.5530 C.ar      1 ATP         0.2109
     26 C6         -3.8510   -4.3579    0.5006 C.ar      1 ATP         0.6180
     27 N6         -4.8468   -4.5293   -0.2961 N.2       1 ATP        -0.8319
     28 N1         -3.2499   -5.2342    1.3937 N.pl3     1 ATP        -0.8664
     29 C2         -2.1646   -4.9275    2.2116 C.ar      1 ATP         0.5952
     30 N3         -1.5382   -3.7840    2.2778 N.2       1 ATP        -0.5599
     31 C4         -2.1054   -2.9018    1.4120 C.ar      1 ATP         0.0076
     32 HOG3       -5.8467    6.7610    2.3355 H         1 ATP         0.4101
     33 H5'1       -1.7771    2.7849    2.1387 H         1 ATP         0.0364
     34 H5'2       -1.1654    2.0541    0.6320 H         1 ATP         0.0364
     35 H4'         0.0403    1.7078    3.4343 H         1 ATP         0.0945
     36 H3'         1.5907    1.4859    1.1353 H         1 ATP         0.0703
     37 HO3'        2.1521    0.9800    3.3017 H         1 ATP         0.4099
     38 H2'        -0.0017    0.0018    0.0005 H         1 ATP         0.0676
     39 HO2'        2.0953   -0.9375    0.0709 H         1 ATP         0.4291
     40 H1'        -0.1998   -1.6319    2.6178 H         1 ATP         0.0950
     41 H8         -2.4515   -0.0599   -0.0829 H         1 ATP         0.1135
     42 HN62       -5.1990   -5.4882   -0.2005 H         1 ATP         0.3588
     43 H2         -1.8555   -5.7783    2.8388 H         1 ATP         0.0302
     44 H44        -3.6312   -6.1750    1.4526 H         1 ATP         0.4215
@<TRIPOS>BOND
     1    1    2 2
     2    1    3 1
     3    1    4 1
     4    1    8 1
     5    4   32 1
     6    5    6 2
     7    5    7 1
     8    5    8 1
     9    5   12 1
    10    9   10 2
    11    9   11 1
    12    9   12 1
    13    9   13 1
    14   13   14 1
    15   14   15 1
    16   14   33 1
    17   14   34 1
    18   15   16 1
    19   15   17 1
    20   15   35 1
    21   16   21 1
    22   17   18 1
    23   17   19 1
    24   17   36 1
    25   18   37 1
    26   19   20 1
    27   19   21 1
    28   19   38 1
    29   20   39 1
    30   21   22 1
    31   21   40 1
    32   22   23 ar
    33   22   31 ar
    34   23   24 ar
    35   23   41 1
    36   24   25 ar
    37   25   26 ar
    38   25   31 ar
    39   26   27 2
    40   26   28 ar
    41   27   42 1
    42   28   29 ar
    43   28   44 1
    44   29   30 ar
    45   29   43 1
    46   30   31 ar
@<TRIPOS>SUBSTRUCTURE
     1 ATP         1 GROUP 0 A     ****
@<TRIPOS>MOLECULE
[[[3,4-dihydroxy-5-(6-imino-1~{H}-purin-9-yl)tetrahydrofuran-2-yl]methoxy-oxido-phosphoryl]oxy-oxido-phosphoryl] hydrogen phosphate
   44    46     1     0     0
SMALL
USER_CHARGES

@<TRIPOS>ATOM
      1 PG          7.2899    1.7379    4.0086 P.3       1 ATP         1.5257
      2 O1G         8.2039    0.5484    3.8161 O.co2     1 ATP        -0.8737
      3 O2G         5.8351    1.6746    3.5995 O.co2     1 ATP        -0.8737
      4 O3G         7.3691    2.2055    5.5709 O.3       1 ATP        -0.7971
      5 PB          8.2727    3.3750    1.7508 P.3       1 ATP         1.6824
      6 O1B         8.7680    4.7993    1.6346 O.co2     1 ATP        -0.8925
      7 O2B         9.0531    2.2233    1.1575 O.co2     1 ATP        -0.8925
      8 O3B         7.9754    3.0509    3.3231 O.3       1 ATP        -0.8047
      9 PA          6.1593    3.5241   -0.3148 P.3       1 ATP         1.5908
     10 O1A         6.6760    2.4087   -1.1975 O.co2     1 ATP        -0.8932
     11 O2A         6.3639    4.9731   -0.6998 O.co2     1 ATP        -0.8932
     12 O3A         6.7382    3.3079    1.1978 O.3       1 ATP        -0.8088
     13 O5'         4.5670    3.2937   -0.0211 O.3       1 ATP        -0.5646
     14 C5'         4.0922    1.9801    0.2227 C.3       1 ATP         0.2204
     15 C4'         2.5944    2.0310    0.4653 C.3       1 ATP         0.0965
     16 O4'         1.9327    2.5740   -0.6889 O.3       1 ATP        -0.3907
     17 C3'         1.9685    0.6634    0.6767 C.3       1 ATP         0.0763
     18 O3'         2.1425    0.1975    1.9977 O.3       1 ATP        -0.5884
     19 C2'         0.5176    0.9128    0.3099 C.3       1 ATP         0.0784
     20 O2'        -0.2103    1.4454    1.4152 O.3       1 ATP        -0.6085
     21 C1'         0.6219    1.9765   -0.7844 C.3       1 ATP         0.2186
     22 N9          0.4237    1.4496   -2.1357 N.pl3     1 ATP        -0.1699
     23 C8         -0.7779    1.3483   -2.7928 C.ar      1 ATP         0.4438
     24 N7         -0.6499    0.8341   -3.9999 N.2       1 ATP        -0.6280
     25 C5          0.6893    0.5965   -4.1212 C.ar      1 ATP         0.2109
     26 C6          1.4031    0.0342   -5.2443 C.ar      1 ATP         0.6180
     27 N6          0.7649   -0.3130   -6.3063 N.2       1 ATP        -0.8319
     28 N1          2.7566   -0.0326   -4.9437 N.pl3     1 ATP        -0.8664
     29 C2          3.3337    0.3796   -3.7446 C.ar      1 ATP         0.5952
     30 N3          2.7120    0.8899   -2.7163 N.2       1 ATP        -0.5599
     31 C4          1.3803    0.9684   -2.9805 C.ar      1 ATP         0.0076
     32 HOG3        6.8279    2.9721    5.8569 H         1 ATP         0.4101
     33 H5'1        4.3179    1.3548   -0.6470 H         1 ATP         0.0364
     34 H5'2        4.6083    1.5737    1.0983 H         1 ATP         0.0364
     35 H4'         2.3752    2.7029    1.3156 H         1 ATP         0.0945
     36 H3'         2.4336   -0.1217   -0.0015 H         1 ATP         0.0703
     37 HO3'        1.7160   -0.6716    2.0397 H         1 ATP         0.4099
     38 H2'         0.0316    0.0155   -0.0339 H         1 ATP         0.0676
     39 HO2'       -0.1608    0.7921    2.1351 H         1 ATP         0.4291
     40 H1'        -0.1474    2.7798   -0.6651 H         1 ATP         0.0950
     41 H8         -1.7076    1.6648   -2.3398 H         1 ATP         0.1135
     42 HN62        1.4266   -0.6890   -6.9943 H         1 ATP         0.3588
     43 H2          4.4251    0.2326   -3.7294 H         1 ATP         0.0302
     44 H44         3.3750   -0.4100   -5.6572 H         1 ATP         0.4215
@<TRIPOS>BOND
     1    1    2 2
     2    1    3 1
     3    1    4 1
     4    1    8 1
     5    4   32 1
     6    5    6 2
     7    5    7 1
     8    5    8 1
     9    5   12 1
    10    9   10 2
    11    9   11 1
    12    9   12 1
    13    9   13 1
    14   13   14 1
    15   14   15 1
    16   14   33 1
    17   14   34 1
    18   15   16 1
    19   15   17 1
    20   15   35 1
    21   16   21 1
    22   17   18 1
    23   17   19 1
    24   17   36 1
    25   18   37 1
    26   19   20 1
    27   19   21 1
    28   19   38 1
    29   20   39 1
    30   21   22 1
    31   21   40 1
    32   22   23 ar
    33   22   31 ar
    34   23   24 ar
    35   23   41 1
    36   24   25 ar
    37   25   26 ar
    38   25   31 ar
    39   26   27 2
    40   26   28 ar
    41   27   42 1
    42   28   29 ar
    43   28   44 1
    44   29   30 ar
    45   29   43 1
    46   30   31 ar
@<TRIPOS>SUBSTRUCTURE
     1 ATP         1 GROUP 0 A     ****
@<TRIPOS>MOLECULE
[[[3,4-dihydroxy-5-(6-imino-1~{H}-purin-9-yl)tetrahydrofuran-2-yl]methoxy-oxido-phosphoryl]oxy-oxido-phosphoryl] hydrogen phosphate
   44    46     1     0     0
SMALL
USER_CHARGES

@<TRIPOS>ATOM
      1 PG         -1.1115    3.6984   -4.5925 P.3       1 ATP         1.5257
      2 O1G        -0.1350    4.6429   -5.2572 O.co2     1 ATP        -0.8737
      3 O2G        -2.5714    3.6849   -4.9878 O.co2     1 ATP        -0.8737
      4 O3G        -0.5275    2.1785   -4.7138 O.3       1 ATP        -0.7971
      5 PB         -1.4007    5.1489   -2.0320 P.3       1 ATP         1.6824
      6 O1B        -0.4610    6.2928   -2.3419 O.co2     1 ATP        -0.8925
      7 O2B        -2.9011    5.3341   -2.0745 O.co2     1 ATP        -0.8925
      8 O3B        -1.0035    3.8756   -2.9736 O.3       1 ATP        -0.8047
      9 PA          0.4528    3.9705   -0.0493 P.3       1 ATP         1.5908
     10 O1A         1.4111    5.1388    0.0343 O.co2     1 ATP        -0.8932
     11 O2A         0.8144    2.7281   -0.8338 O.co2     1 ATP        -0.8932
     12 O3A        -0.9922    4.5136   -0.5848 O.3       1 ATP        -0.8088
     13 O5'         0.0178    3.5131    1.4595 O.3       1 ATP        -0.5646
     14 C5'        -0.8811    2.4285    1.6206 C.3       1 ATP         0.2204
     15 C4'        -0.1994    1.3333    2.4288 C.3       1 ATP         0.0965
     16 O4'        -1.1285    0.2356    2.5840 O.3       1 ATP        -0.3907
     17 C3'         1.0324    0.7610    1.7344 C.3       1 ATP         0.0763
     18 O3'         1.9175    0.2377    2.7247 O.3       1 ATP        -0.5884
     19 C2'         0.4468   -0.3802    0.9263 C.3       1 ATP         0.0784
     20 O2'         1.3993   -1.3703    0.5961 O.3       1 ATP        -0.6085
     21 C1'        -0.6159   -0.9100    1.8769 C.3       1 ATP         0.2186
     22 N9         -1.7127   -1.6108    1.2130 N.pl3     1 ATP        -0.1699
     23 C8         -1.7690   -2.9583    0.9549 C.ar      1 ATP         0.4438
     24 N7         -2.8827   -3.3076    0.3418 N.2       1 ATP        -0.6280
     25 C5         -3.5683   -2.1351    0.2017 C.ar      1 ATP         0.2109
     26 C6         -4.8617   -1.9185   -0.4044 C.ar      1 ATP         0.6180
     27 N6         -5.5166   -2.9094   -0.8993 N.2       1 ATP        -0.8319
     28 N1         -5.1837   -0.5701   -0.3344 N.pl3     1 ATP        -0.8664
     29 C2         -4.3821    0.4180    0.2330 C.ar      1 ATP         0.5952
     30 N3         -3.2117    0.2488    0.7860 N.2       1 ATP        -0.5599
     31 C4         -2.8672   -1.0657    0.7327 C.ar      1 ATP         0.0076
     32 HOG3       -1.0513    1.4448   -4.3271 H         1 ATP         0.4101
     33 H5'1       -1.7771    2.7849    2.1387 H         1 ATP         0.0364
     34 H5'2       -1.1654    2.0541    0.6320 H         1 ATP         0.0364
     35 H4'         0.0403    1.7078    3.4343 H         1 ATP         0.0945
     36 H3'         1.5907    1.4859    1.1353 H         1 ATP         0.0703
     37 HO3'        2.6839   -0.1150    2.2479 H         1 ATP         0.4099
     38 H2'        -0.0017    0.0018    0.0005 H         1 ATP         0.0676
     39 HO2'        2.0953   -0.9375    0.0709 H         1 ATP         0.4291
     40 H1'        -0.1998   -1.6319    2.6178 H         1 ATP         0.0950
     41 H8         -0.9697   -3.6300    1.2371 H         1 ATP         0.1135
     42 HN62       -6.4060   -2.5723   -1.2840 H         1 ATP         0.3588
     43 H2         -4.8409    1.4176    0.1757 H         1 ATP         0.0302
     44 H44        -6.0768   -0.2826   -0.7263 H         1 ATP         0.4215
@<TRIPOS>BOND
     1    1    2 2
     2    1    3 1
     3    1    4 1
     4    1    8 1
     5    4   32 1
     6    5    6 2
     7    5    7 1
     8    5    8 1
     9    5   12 1
    10    9   10 2
    11    9   11 1
    12    9   12 1
    13    9   13 1
    14   13   14 1
    15   14   15 1
    16   14   33 1
    17   14   34 1
    18   15   16 1
    19   15   17 1
    20   15   35 1
    21   16   21 1
    22   17   18 1
    23   17   19 1
    24   17   36 1
    25   18   37 1
    26   19   20 1
    27   19   21 1
    28   19   38 1
    29   20   39 1
    30   21   22 1
    31   21   40 1
    32   22   23 ar
    33   22   31 ar
    34   23   24 ar
    35   23   41 1
    36   24   25 ar
    37   25   26 ar
    38   25   31 ar
    39   26   27 2
    40   26   28 ar
    41   27   42 1
    42   28   29 ar
    43   28   44 1
    44   29   30 ar
    45   29   43 1
    46   30   31 ar
@<TRIPOS>SUBSTRUCTURE
     1 ATP         1 GROUP 0 A     ****
@<TRIPOS>MOLECULE
[[[3,4-dihydroxy-5-(6-imino-1~{H}-purin-9-yl)tetrahydrofuran-2-yl]methoxy-oxido-phosphoryl]oxy-oxido-phosphoryl] hydrogen phosphate
   44    46     1     0     0
SMALL
USER_CHARGES

@<TRIPOS>ATOM
      1 PG          0.9981    7.9536   -0.7986 P.3       1 ATP         1.5257
      2 O1G         0.9277    9.2468   -0.0174 O.co2     1 ATP        -0.8737
      3 O2G         0.5939    7.9025   -2.2552 O.co2     1 ATP        -0.8737
      4 O3G         2.5061    7.3438   -0.6573 O.3       1 ATP        -0.7971
      5 PB         -1.4096    6.6634    0.3334 P.3       1 ATP         1.6824
      6 O1B        -1.8112    7.7776    1.2740 O.co2     1 ATP        -0.8925
      7 O2B        -2.1450    6.4337   -0.9681 O.co2     1 ATP        -0.8925
      8 O3B         0.1865    6.7958    0.0165 O.3       1 ATP        -0.8047
      9 PA         -2.5926    4.4187    1.8556 P.3       1 ATP         1.5908
     10 O1A        -3.5065    3.9076    0.7629 O.co2     1 ATP        -0.8932
     11 O2A        -3.1430    5.2317    3.0070 O.co2     1 ATP        -0.8932
     12 O3A        -1.3728    5.2613    1.1687 O.3       1 ATP        -0.8088
     13 O5'        -1.7336    3.1724    2.4750 O.3       1 ATP        -0.5646
     14 C5'        -0.8811    2.4285    1.6206 C.3       1 ATP         0.2204
     15 C4'        -0.1994    1.3333    2.4288 C.3       1 ATP         0.0965
     16 O4'        -1.1285    0.2356    2.5840 O.3       1 ATP        -0.3907
     17 C3'         1.0324    0.7610    1.7344 C.3       1 ATP         0.0763
     18 O3'         1.9175    0.2377    2.7247 O.3       1 ATP        -0.5884
     19 C2'         0.4468   -0.3802    0.9263 C.3       1 ATP         0.0784
     20 O2'         1.3993   -1.3703    0.5961 O.3       1 ATP        -0.6085
     21 C1'        -0.6159   -0.9100    1.8769 C.3       1 ATP         0.2186
     22 N9         -1.7127   -1.6108    1.2130 N.pl3     1 ATP        -0.1699
     23 C8         -2.0868   -2.9137    1.4327 C.ar      1 ATP         0.4438
     24 N7         -3.1125   -3.2756    0.6878 N.2       1 ATP        -0.6280
     25 C5         -3.4079   -2.1580   -0.0391 C.ar      1 ATP         0.2109
     26 C6         -4.4483   -1.9775   -1.0249 C.ar      1 ATP         0.6180
     27 N6         -5.2418   -2.9492   -1.3113 N.2       1 ATP        -0.8319
     28 N1         -4.3937   -0.6823   -1.5211 N.pl3     1 ATP        -0.8664
     29 C2         -3.4770    0.2901   -1.1271 C.ar      1 ATP         0.5952
     30 N3         -2.5289    0.1525   -0.2402 N.2       1 ATP        -0.5599
     31 C4         -2.5564   -1.1096    0.2655 C.ar      1 ATP         0.0076
     32 HOG3        2.7128    6.4994   -1.1119 H         1 ATP         0.4101
     33 H5'1       -1.4800    1.9927    0.8146 H         1 ATP         0.0364
     34 H5'2       -0.1367    3.1040    1.1872 H         1 ATP         0.0364
     35 H4'         0.0403    1.7078    3.4343 H         1 ATP         0.0945
     36 H3'         1.5907    1.4859    1.1353 H         1 ATP         0.0703
     37 HO3'        2.6839   -0.1150    2.2479 H         1 ATP         0.4099
     38 H2'        -0.0017    0.0018    0.0005 H         1 ATP         0.0676
     39 HO2'        0.9369   -2.0558    0.0825 H         1 ATP         0.4291
     40 H1'        -0.1998   -1.6319    2.6178 H         1 ATP         0.0950
     41 H8         -1.5740   -3.5449    2.1457 H         1 ATP         0.1135
     42 HN62       -5.9117   -2.6433   -2.0256 H         1 ATP         0.3588
     43 H2         -3.6225    1.2454   -1.6553 H         1 ATP         0.0302
     44 H44        -5.0794   -0.4231   -2.2258 H         1 ATP         0.4215
@<TRIPOS>BOND
     1    1    2 2
     2    1    3 1
     3    1    4 1
     4    1    8 1
     5    4   32 1
     6    5    6 2
     7    5    7 1
     8    5    8 1
     9    5   12 1
    10    9   10 2
    11    9   11 1
    12    9   12 1
    13    9   13 1
    14   13   14 1
    15   14   15 1
    16   14   33 1
    17   14   34 1
    18   15   16 1
    19   15   17 1
    20   15   35 1
    21   16   21 1
    22   17   18 1
    23   17   19 1
    24   17   36 1
    25   18   37 1
    26   19   20 1
    27   19   21 1
    28   19   38 1
    29   20   39 1
    30   21   22 1
    31   21   40 1
    32   22   23 ar
    33   22   31 ar
    34   23   24 ar
    35   23   41 1
    36   24   25 ar
    37   25   26 ar
    38   25   31 ar
    39   26   27 2
    40   26   28 ar
    41   27   42 1
    42   28   29 ar
    43   28   44 1
    44   29   30 ar
    45   29   43 1
    46   30   31 ar
@<TRIPOS>SUBSTRUCTURE
     1 ATP         1 GROUP 0 A     ****
@<TRIPOS>MOLECULE
[[[3,4-dihydroxy-5-(6-imino-1~{H}-purin-9-yl)tetrahydrofuran-2-yl]methoxy-oxido-phosphoryl]oxy-oxido-phosphoryl] hydrogen phosphate
   44    46     1     0     0
SMALL
USER_CHARGES

@<TRIPOS>ATOM
      1 PG          7.7299    5.7003   -3.9008 P.3       1 ATP         1.5257
      2 O1G         6.8420    6.9236   -3.8513 O.co2     1 ATP        -0.8737
      3 O2G         8.2940    5.2018   -5.2127 O.co2     1 ATP        -0.8737
      4 O3G         8.9641    5.9125   -2.8531 O.3       1 ATP        -0.7971
      5 PB          7.5261    2.9743   -2.7735 P.3       1 ATP         1.6824
      6 O1B         7.7580    2.2083   -4.0568 O.co2     1 ATP        -0.8925
      7 O2B         8.6150    3.1058   -1.7321 O.co2     1 ATP        -0.8925
      8 O3B         6.9754    4.4654   -3.1461 O.3       1 ATP        -0.8047
      9 PA          5.8979    0.9309   -1.3848 P.3       1 ATP         1.5908
     10 O1A         6.7868    0.7713   -0.1705 O.co2     1 ATP        -0.8932
     11 O2A         5.9018   -0.1050   -2.4878 O.co2     1 ATP        -0.8932
     12 O3A         6.1804    2.3945   -2.0539 O.3       1 ATP        -0.8088
     13 O5'         4.3516    1.1575   -0.9026 O.3       1 ATP        -0.5646
     14 C5'         4.0922    1.9801    0.2227 C.3       1 ATP         0.2204
     15 C4'         2.5944    2.0310    0.4653 C.3       1 ATP         0.0965
     16 O4'         1.9327    2.5740   -0.6889 O.3       1 ATP        -0.3907
     17 C3'         1.9685    0.6634    0.6767 C.3       1 ATP         0.0763
     18 O3'         2.1425    0.1975    1.9977 O.3       1 ATP        -0.5884
     19 C2'         0.5176    0.9128    0.3099 C.3       1 ATP         0.0784
     20 O2'        -0.2103    1.4454    1.4152 O.3       1 ATP        -0.6085
     21 C1'         0.6219    1.9765   -0.7844 C.3       1 ATP         0.2186
     22 N9          0.4237    1.4496   -2.1357 N.pl3     1 ATP        -0.1699
     23 C8          1.4069    0.9710   -2.9662 C.ar      1 ATP         0.4438
     24 N7          0.9316    0.5623   -4.1260 N.2       1 ATP        -0.6280
     25 C5         -0.4120    0.7884   -4.0344 C.ar      1 ATP         0.2109
     26 C6         -1.4353    0.5283   -5.0204 C.ar      1 ATP         0.6180
     27 N6         -1.1199    0.0176   -6.1586 N.2       1 ATP        -0.8319
     28 N1         -2.6704    0.9095   -4.5147 N.pl3     1 ATP        -0.8664
     29 C2         -2.8863    1.4571   -3.2520 C.ar      1 ATP         0.5952
     30 N3         -1.9805    1.7017   -2.3442 N.2       1 ATP        -0.5599
     31 C4         -0.7561    1.3381   -2.8112 C.ar      1 ATP         0.0076
     32 HOG3        9.6327    5.1997   -2.7687 H         1 ATP         0.4101
     33 H5'1        4.6069    1.5618    1.0936 H         1 ATP         0.0364
     34 H5'2        4.4824    2.9837    0.0254 H         1 ATP         0.0364
     35 H4'         2.3752    2.7029    1.3156 H         1 ATP         0.0945
     36 H3'         2.4336   -0.1217   -0.0015 H         1 ATP         0.0703
     37 HO3'        1.7160   -0.6716    2.0397 H         1 ATP         0.4099
     38 H2'         0.0316    0.0155   -0.0339 H         1 ATP         0.0676
     39 HO2'       -0.1608    0.7921    2.1351 H         1 ATP         0.4291
     40 H1'        -0.1474    2.7798   -0.6651 H         1 ATP         0.0950
     41 H8          2.4466    0.9468   -2.6694 H         1 ATP         0.1135
     42 HN62       -1.9661   -0.0965   -6.7275 H         1 ATP         0.3588
     43 H2         -3.9481    1.6825   -3.0660 H         1 ATP         0.0302
     44 H44        -3.4814    0.7753   -5.1133 H         1 ATP         0.4215
@<TRIPOS>BOND
     1    1    2 2
     2    1    3 1
     3    1    4 1
     4    1    8 1
     5    4   32 1
     6    5    6 2
     7    5    7 1
     8    5    8 1
     9    5   12 1
    10    9   10 2
    11    9   11 1
    12    9   12 1
    13    9   13 1
    14   13   14 1
    15   14   15 1
    16   14   33 1
    17   14   34 1
    18   15   16 1
    19   15   17 1
    20   15   35 1
    21   16   21 1
    22   17   18 1
    23   17   19 1
    24   17   36 1
    25   18   37 1
    26   19   20 1
    27   19   21 1
    28   19   38 1
    29   20   39 1
    30   21   22 1
    31   21   40 1
    32   22   23 ar
    33   22   31 ar
    34   23   24 ar
    35   23   41 1
    36   24   25 ar
    37   25   26 ar
    38   25   31 ar
    39   26   27 2
    40   26   28 ar
    41   27   42 1
    42   28   29 ar
    43   28   44 1
    44   29   30 ar
    45   29   43 1
    46   30   31 ar
@<TRIPOS>SUBSTRUCTURE
     1 ATP         1 GROUP 0 A     ****
@<TRIPOS>MOLECULE
[[[3,4-dihydroxy-5-(6-imino-1~{H}-purin-9-yl)tetrahydrofuran-2-yl]methoxy-oxido-phosphoryl]oxy-oxido-phosphoryl] hydrogen phosphate
   44    46     1     0     0
SMALL
USER_CHARGES

@<TRIPOS>ATOM
      1 PG          9.3022    0.9431   -3.1815 P.3       1 ATP         1.5257
      2 O1G         9.8914   -0.3358   -2.6294 O.co2     1 ATP        -0.8737
      3 O2G        10.1944    2.0682   -3.6568 O.co2     1 ATP        -0.8737
      4 O3G         8.2660    0.5600   -4.3837 O.3       1 ATP        -0.7971
      5 PB          8.4676    2.1478   -0.6133 P.3       1 ATP         1.6824
      6 O1B         8.9389    1.0333    0.2940 O.co2     1 ATP        -0.8925
      7 O2B         9.2444    3.4397   -0.7358 O.co2     1 ATP        -0.8925
      8 O3B         8.2260    1.5386   -2.1087 O.3       1 ATP        -0.8047
      9 PA          5.8655    3.5044   -0.9928 P.3       1 ATP         1.5908
     10 O1A         5.5610    2.9521   -2.3685 O.co2     1 ATP        -0.8932
     11 O2A         6.3585    4.9247   -0.8212 O.co2     1 ATP        -0.8932
     12 O3A         6.9171    2.5019   -0.2453 O.3       1 ATP        -0.8088
     13 O5'         4.5670    3.2937   -0.0211 O.3       1 ATP        -0.5646
     14 C5'         4.0922    1.9801    0.2227 C.3       1 ATP         0.2204
     15 C4'         2.5944    2.0310    0.4653 C.3       1 ATP         0.0965
     16 O4'         1.9327    2.5740   -0.6889 O.3       1 ATP        -0.3907
     17 C3'         1.9685    0.6634    0.6767 C.3       1 ATP         0.0763
     18 O3'         2.1425    0.1975    1.9977 O.3       1 ATP        -0.5884
     19 C2'         0.5176    0.9128    0.3099 C.3       1 ATP         0.0784
     20 O2'        -0.2103    1.4454    1.4152 O.3       1 ATP        -0.6085
     21 C1'         0.6219    1.9765   -0.7844 C.3       1 ATP         0.2186
     22 N9          0.4237    1.4496   -2.1357 N.pl3     1 ATP        -0.1699
     23 C8          1.4069    0.9710   -2.9662 C.ar      1 ATP         0.4438
     24 N7          0.9316    0.5623   -4.1260 N.2       1 ATP        -0.6280
     25 C5         -0.4120    0.7884   -4.0344 C.ar      1 ATP         0.2109
     26 C6         -1.4353    0.5283   -5.0204 C.ar      1 ATP         0.6180
     27 N6         -1.1199    0.0176   -6.1586 N.2       1 ATP        -0.8319
     28 N1         -2.6704    0.9095   -4.5147 N.pl3     1 ATP        -0.8664
     29 C2         -2.8863    1.4571   -3.2520 C.ar      1 ATP         0.5952
     30 N3         -1.9805    1.7017   -2.3442 N.2       1 ATP        -0.5599
     31 C4         -0.7561    1.3381   -2.8112 C.ar      1 ATP         0.0076
     32 HOG3        7.7986    1.2876   -4.8468 H         1 ATP         0.4101
     33 H5'1        4.3179    1.3548   -0.6470 H         1 ATP         0.0364
     34 H5'2        4.6083    1.5737    1.0983 H         1 ATP         0.0364
     35 H4'         2.3752    2.7029    1.3156 H         1 ATP         0.0945
     36 H3'         2.4336   -0.1217   -0.0015 H         1 ATP         0.0703
     37 HO3'        1.7160   -0.6716    2.0397 H         1 ATP         0.4099
     38 H2'         0.0316    0.0155   -0.0339 H         1 ATP         0.0676
     39 HO2'       -1.1270    1.5823    1.1180 H         1 ATP         0.4291
     40 H1'        -0.1474    2.7798   -0.6651 H         1 ATP         0.0950
     41 H8          2.4466    0.9468   -2.6694 H         1 ATP         0.1135
     42 HN62       -1.9661   -0.0965   -6.7275 H         1 ATP         0.3588
     43 H2         -3.9481    1.6825   -3.0660 H         1 ATP         0.0302
     44 H44        -3.4814    0.7753   -5.1133 H         1 ATP         0.4215
@<TRIPOS>BOND
     1    1    2 2
     2    1    3 1
     3    1    4 1
     4    1    8 1
     5    4   32 1
     6    5    6 2
     7    5    7 1
     8    5    8 1
     9    5   12 1
    10    9   10 2
    11    9   11 1
    12    9   12 1
    13    9   13 1
    14   13   14 1
    15   14   15 1
    16   14   33 1
    17   14   34 1
    18   15   16 1
    19   15   17 1
    20   15   35 1
    21   16   21 1
    22   17   18 1
    23   17   19 1
    24   17   36 1
    25   18   37 1
    26   19   20 1
    27   19   21 1
    28   19   38 1
    29   20   39 1
    30   21   22 1
    31   21   40 1
    32   22   23 ar
    33   22   31 ar
    34   23   24 ar
    35   23   41 1
    36   24   25 ar
    37   25   26 ar
    38   25   31 ar
    39   26   27 2
    40   26   28 ar
    41   27   42 1
    42   28   29 ar
    43   28   44 1
    44   29   30 ar
    45   29   43 1
    46   30   31 ar
@<TRIPOS>SUBSTRUCTURE
     1 ATP         1 GROUP 0 A     ****
@<TRIPOS>MOLECULE
[[[3,4-dihydroxy-5-(6-imino-1~{H}-purin-9-yl)tetrahydrofuran-2-yl]methoxy-oxido-phosphoryl]oxy-oxido-phosphoryl] hydrogen phosphate
   44    46     1     0     0
SMALL
USER_CHARGES

@<TRIPOS>ATOM
      1 PG         -2.3248    7.7238   -1.6324 P.3       1 ATP         1.5257
      2 O1G        -2.9860    6.9444   -2.7473 O.co2     1 ATP        -0.8737
      3 O2G        -1.1093    8.5833   -1.8997 O.co2     1 ATP        -0.8737
      4 O3G        -3.4580    8.6423   -0.8988 O.3       1 ATP        -0.7971
      5 PB         -1.4278    7.0312    1.0987 P.3       1 ATP         1.6824
      6 O1B        -0.0102    7.5450    0.9809 O.co2     1 ATP        -0.8925
      7 O2B        -2.4813    7.8061    1.8585 O.co2     1 ATP        -0.8925
      8 O3B        -1.9936    6.7084   -0.3983 O.3       1 ATP        -0.8047
      9 PA         -2.5926    4.4187    1.8556 P.3       1 ATP         1.5908
     10 O1A        -3.1164    4.0395    0.4873 O.co2     1 ATP        -0.8932
     11 O2A        -3.5302    4.9262    2.9294 O.co2     1 ATP        -0.8932
     12 O3A        -1.3848    5.5039    1.6734 O.3       1 ATP        -0.8088
     13 O5'        -1.7336    3.1724    2.4750 O.3       1 ATP        -0.5646
     14 C5'        -0.8811    2.4285    1.6206 C.3       1 ATP         0.2204
     15 C4'        -0.1994    1.3333    2.4288 C.3       1 ATP         0.0965
     16 O4'        -1.1285    0.2356    2.5840 O.3       1 ATP        -0.3907
     17 C3'         1.0324    0.7610    1.7344 C.3       1 ATP         0.0763
     18 O3'         1.9175    0.2377    2.7247 O.3       1 ATP        -0.5884
     19 C2'         0.4468   -0.3802    0.9263 C.3       1 ATP         0.0784
     20 O2'         1.3993   -1.3703    0.5961 O.3       1 ATP        -0.6085
     21 C1'        -0.6159   -0.9100    1.8769 C.3       1 ATP         0.2186
     22 N9         -1.7127   -1.6108    1.2130 N.pl3     1 ATP        -0.1699
     23 C8         -2.0868   -2.9137    1.4327 C.ar      1 ATP         0.4438
     24 N7         -3.1125   -3.2756    0.6878 N.2       1 ATP        -0.6280
     25 C5         -3.4079   -2.1580   -0.0391 C.ar      1 ATP         0.2109
     26 C6         -4.4483   -1.9775   -1.0249 C.ar      1 ATP         0.6180
     27 N6         -5.2418   -2.9492   -1.3113 N.2       1 ATP        -0.8319
     28 N1         -4.3937   -0.6823   -1.5211 N.pl3     1 ATP        -0.8664
     29 C2         -3.4770    0.2901   -1.1271 C.ar      1 ATP         0.5952
     30 N3         -2.5289    0.1525   -0.2402 N.2       1 ATP        -0.5599
     31 C4         -2.5564   -1.1096    0.2655 C.ar      1 ATP         0.0076
     32 HOG3       -3.1837    9.2112   -0.1482 H         1 ATP         0.4101
     33 H5'1       -1.4800    1.9927    0.8146 H         1 ATP         0.0364
     34 H5'2       -0.1367    3.1040    1.1872 H         1 ATP         0.0364
     35 H4'         0.0403    1.7078    3.4343 H         1 ATP         0.0945
     36 H3'         1.5907    1.4859    1.1353 H         1 ATP         0.0703
     37 HO3'        2.6839   -0.1150    2.2479 H         1 ATP         0.4099
     38 H2'        -0.0017    0.0018    0.0005 H         1 ATP         0.0676
     39 HO2'        0.9369   -2.0558    0.0825 H         1 ATP         0.4291
     40 H1'        -0.1998   -1.6319    2.6178 H         1 ATP         0.0950
     41 H8         -1.5740   -3.5449    2.1457 H         1 ATP         0.1135
     42 HN62       -5.9117   -2.6433   -2.0256 H         1 ATP         0.3588
     43 H2         -3.6225    1.2454   -1.6553 H         1 ATP         0.0302
     44 H44        -5.0794   -0.4231   -2.2258 H         1 ATP         0.4215
@<TRIPOS>BOND
     1    1    2 2
     2    1    3 1
     3    1    4 1
     4    1    8 1
     5    4   32 1
     6    5    6 2
     7    5    7 1
     8    5    8 1
     9    5   12 1
    10    9   10 2
    11    9   11 1
    12    9   12 1
    13    9   13 1
    14   13   14 1
    15   14   15 1
    16   14   33 1
    17   14   34 1
    18   15   16 1
    19   15   17 1
    20   15   35 1
    21   16   21 1
    22   17   18 1
    23   17   19 1
    24   17   36 1
    25   18   37 1
    26   19   20 1
    27   19   21 1
    28   19   38 1
    29   20   39 1
    30   21   22 1
    31   21   40 1
    32   22   23 ar
    33   22   31 ar
    34   23   24 ar
    35   23   41 1
    36   24   25 ar
    37   25   26 ar
    38   25   31 ar
    39   26   27 2
    40   26   28 ar
    41   27   42 1
    42   28   29 ar
    43   28   44 1
    44   29   30 ar
    45   29   43 1
    46   30   31 ar
@<TRIPOS>SUBSTRUCTURE
     1 ATP         1 GROUP 0 A     ****
@<TRIPOS>MOLECULE
[[[3,4-dihydroxy-5-(6-imino-1~{H}-purin-9-yl)tetrahydrofuran-2-yl]methoxy-oxido-phosphoryl]oxy-oxido-phosphoryl] hydrogen phosphate
   44    46     1     0     0
SMALL
USER_CHARGES

@<TRIPOS>ATOM
      1 PG          0.3379    8.2848    3.5362 P.3       1 ATP         1.5257
      2 O1G         1.5284    7.6047    4.1747 O.co2     1 ATP        -0.8737
      3 O2G        -0.5821    9.1672    4.3502 O.co2     1 ATP        -0.8737
      4 O3G         0.8579    9.1327    2.2414 O.3       1 ATP        -0.7971
      5 PB         -1.4295    5.9213    3.3516 P.3       1 ATP         1.6824
      6 O1B        -0.4815    4.9134    3.9621 O.co2     1 ATP        -0.8925
      7 O2B        -2.5936    6.4792    4.1397 O.co2     1 ATP        -0.8925
      8 O3B        -0.5571    7.1657    2.7548 O.3       1 ATP        -0.8047
      9 PA         -2.9646    4.0418    1.6587 P.3       1 ATP         1.5908
     10 O1A        -3.0699    3.8298    0.1639 O.co2     1 ATP        -0.8932
     11 O2A        -4.2078    4.1934    2.5079 O.co2     1 ATP        -0.8932
     12 O3A        -1.9910    5.3235    1.9402 O.3       1 ATP        -0.8088
     13 O5'        -2.0401    2.8620    2.3128 O.3       1 ATP        -0.5646
     14 C5'        -0.8811    2.4285    1.6206 C.3       1 ATP         0.2204
     15 C4'        -0.1994    1.3333    2.4288 C.3       1 ATP         0.0965
     16 O4'        -1.1285    0.2356    2.5840 O.3       1 ATP        -0.3907
     17 C3'         1.0324    0.7610    1.7344 C.3       1 ATP         0.0763
     18 O3'         1.9175    0.2377    2.7247 O.3       1 ATP        -0.5884
     19 C2'         0.4468   -0.3802    0.9263 C.3       1 ATP         0.0784
     20 O2'         1.3993   -1.3703    0.5961 O.3       1 ATP        -0.6085
     21 C1'        -0.6159   -0.9100    1.8769 C.3       1 ATP         0.2186
     22 N9         -1.7127   -1.6108    1.2130 N.pl3     1 ATP        -0.1699
     23 C8         -1.6202   -2.3321    0.0482 C.ar      1 ATP         0.4438
     24 N7         -2.7754   -2.8539   -0.3142 N.2       1 ATP        -0.6280
     25 C5         -3.6439   -2.4502    0.6592 C.ar      1 ATP         0.2109
     26 C6         -5.0563   -2.7308    0.7745 C.ar      1 ATP         0.6180
     27 N6         -5.6468   -3.4480   -0.1158 N.2       1 ATP        -0.8319
     28 N1         -5.5549   -2.1241    1.9191 N.pl3     1 ATP        -0.8664
     29 C2         -4.8068   -1.3637    2.8153 C.ar      1 ATP         0.5952
     30 N3         -3.5318   -1.0957    2.7338 N.2       1 ATP        -0.5599
     31 C4         -3.0130   -1.6778    1.6196 C.ar      1 ATP         0.0076
     32 HOG3        0.1983    9.6342    1.7162 H         1 ATP         0.4101
     33 H5'1       -1.1767    2.0502    0.6368 H         1 ATP         0.0364
     34 H5'2       -0.2080    3.2814    1.4876 H         1 ATP         0.0364
     35 H4'         0.0403    1.7078    3.4343 H         1 ATP         0.0945
     36 H3'         1.5907    1.4859    1.1353 H         1 ATP         0.0703
     37 HO3'        2.6839   -0.1150    2.2479 H         1 ATP         0.4099
     38 H2'        -0.0017    0.0018    0.0005 H         1 ATP         0.0676
     39 HO2'        2.0953   -0.9375    0.0709 H         1 ATP         0.4291
     40 H1'        -0.1998   -1.6319    2.6178 H         1 ATP         0.0950
     41 H8         -0.6865   -2.4395   -0.4871 H         1 ATP         0.1135
     42 HN62       -6.6394   -3.5426    0.1257 H         1 ATP         0.3588
     43 H2         -5.4125   -0.9811    3.6517 H         1 ATP         0.0302
     44 H44        -6.5442   -2.2475    2.1195 H         1 ATP         0.4215
@<TRIPOS>BOND
     1    1    2 2
     2    1    3 1
     3    1    4 1
     4    1    8 1
     5    4   32 1
     6    5    6 2
     7    5    7 1
     8    5    8 1
     9    5   12 1
    10    9   10 2
    11    9   11 1
    12    9   12 1
    13    9   13 1
    14   13   14 1
    15   14   15 1
    16   14   33 1
    17   14   34 1
    18   15   16 1
    19   15   17 1
    20   15   35 1
    21   16   21 1
    22   17   18 1
    23   17   19 1
    24   17   36 1
    25   18   37 1
    26   19   20 1
    27   19   21 1
    28   19   38 1
    29   20   39 1
    30   21   22 1
    31   21   40 1
    32   22   23 ar
    33   22   31 ar
    34   23   24 ar
    35   23   41 1
    36   24   25 ar
    37   25   26 ar
    38   25   31 ar
    39   26   27 2
    40   26   28 ar
    41   27   42 1
    42   28   29 ar
    43   28   44 1
    44   29   30 ar
    45   29   43 1
    46   30   31 ar
@<TRIPOS>SUBSTRUCTURE
     1 ATP         1 GROUP 0 A     ****
@<TRIPOS>MOLECULE
[[[3,4-dihydroxy-5-(6-imino-1~{H}-purin-9-yl)tetrahydrofuran-2-yl]methoxy-oxido-phosphoryl]oxy-oxido-phosphoryl] hydrogen phosphate
   44    46     1     0     0
SMALL
USER_CHARGES

@<TRIPOS>ATOM
      1 PG          0.8355    3.6509    6.4979 P.3       1 ATP         1.5257
      2 O1G         1.9047    4.5922    7.0059 O.co2     1 ATP        -0.8737
      3 O2G         1.1282    2.6712    5.3833 O.co2     1 ATP        -0.8737
      4 O3G         0.2258    2.8249    7.7674 O.3       1 ATP        -0.7971
      5 PB         -0.7129    5.6110    4.9154 P.3       1 ATP         1.6824
      6 O1B        -2.1747    5.9970    4.8770 O.co2     1 ATP        -0.8925
      7 O2B         0.3721    6.6601    5.0135 O.co2     1 ATP        -0.8925
      8 O3B        -0.4917    4.5163    6.1064 O.3       1 ATP        -0.8047
      9 PA         -0.3962    4.9846    2.0409 P.3       1 ATP         1.5908
     10 O1A         0.7136    5.9719    1.7515 O.co2     1 ATP        -0.8932
     11 O2A        -1.8200    5.2757    1.6193 O.co2     1 ATP        -0.8932
     12 O3A        -0.3932    4.6446    3.6391 O.3       1 ATP        -0.8088
     13 O5'         0.0178    3.5131    1.4595 O.3       1 ATP        -0.5646
     14 C5'        -0.8811    2.4285    1.6206 C.3       1 ATP         0.2204
     15 C4'        -0.1994    1.3333    2.4288 C.3       1 ATP         0.0965
     16 O4'        -1.1285    0.2356    2.5840 O.3       1 ATP        -0.3907
     17 C3'         1.0324    0.7610    1.7344 C.3       1 ATP         0.0763
     18 O3'         1.9175    0.2377    2.7247 O.3       1 ATP        -0.5884
     19 C2'         0.4468   -0.3802    0.9263 C.3       1 ATP         0.0784
     20 O2'         1.3993   -1.3703    0.5961 O.3       1 ATP        -0.6085
     21 C1'        -0.6159   -0.9100    1.8769 C.3       1 ATP         0.2186
     22 N9         -1.7127   -1.6108    1.2130 N.pl3     1 ATP        -0.1699
     23 C8         -1.7690   -2.9583    0.9549 C.ar      1 ATP         0.4438
     24 N7         -2.8827   -3.3076    0.3418 N.2       1 ATP        -0.6280
     25 C5         -3.5683   -2.1351    0.2017 C.ar      1 ATP         0.2109
     26 C6         -4.8617   -1.9185   -0.4044 C.ar      1 ATP         0.6180
     27 N6         -5.5166   -2.9094   -0.8993 N.2       1 ATP        -0.8319
     28 N1         -5.1837   -0.5701   -0.3344 N.pl3     1 ATP        -0.8664
     29 C2         -4.3821    0.4180    0.2330 C.ar      1 ATP         0.5952
     30 N3         -3.2117    0.2488    0.7860 N.2       1 ATP        -0.5599
     31 C4         -2.8672   -1.0657    0.7327 C.ar      1 ATP         0.0076
     32 HOG3       -0.4839    2.1686    7.6001 H         1 ATP         0.4101
     33 H5'1       -1.7771    2.7849    2.1387 H         1 ATP         0.0364
     34 H5'2       -1.1654    2.0541    0.6320 H         1 ATP         0.0364
     35 H4'         0.0403    1.7078    3.4343 H         1 ATP         0.0945
     36 H3'         1.5907    1.4859    1.1353 H         1 ATP         0.0703
     37 HO3'        2.1521    0.9800    3.3017 H         1 ATP         0.4099
     38 H2'        -0.0017    0.0018    0.0005 H         1 ATP         0.0676
     39 HO2'        0.9369   -2.0558    0.0825 H         1 ATP         0.4291
     40 H1'        -0.1998   -1.6319    2.6178 H         1 ATP         0.0950
     41 H8         -0.9697   -3.6300    1.2371 H         1 ATP         0.1135
     42 HN62       -6.4060   -2.5723   -1.2840 H         1 ATP         0.3588
     43 H2         -4.8409    1.4176    0.1757 H         1 ATP         0.0302
     44 H44        -6.0768   -0.2826   -0.7263 H         1 ATP         0.4215
@<TRIPOS>BOND
     1    1    2 2
     2    1    3 1
     3    1    4 1
     4    1    8 1
     5    4   32 1
     6    5    6 2
     7    5    7 1
     8    5    8 1
     9    5   12 1
    10    9   10 2
    11    9   11 1
    12    9   12 1
    13    9   13 1
    14   13   14 1
    15   14   15 1
    16   14   33 1
    17   14   34 1
    18   15   16 1
    19   15   17 1
    20   15   35 1
    21   16   21 1
    22   17   18 1
    23   17   19 1
    24   17   36 1
    25   18   37 1
    26   19   20 1
    27   19   21 1
    28   19   38 1
    29   20   39 1
    30   21   22 1
    31   21   40 1
    32   22   23 ar
    33   22   31 ar
    34   23   24 ar
    35   23   41 1
    36   24   25 ar
    37   25   26 ar
    38   25   31 ar
    39   26   27 2
    40   26   28 ar
    41   27   42 1
    42   28   29 ar
    43   28   44 1
    44   29   30 ar
    45   29   43 1
    46   30   31 ar
@<TRIPOS>SUBSTRUCTURE
     1 ATP         1 GROUP 0 A     ****
@<TRIPOS>MOLECULE
[[[3,4-dihydroxy-5-(6-imino-1~{H}-purin-9-yl)tetrahydrofuran-2-yl]methoxy-oxido-phosphoryl]oxy-oxido-phosphoryl] hydrogen phosphate
   44    46     1     0     0
SMALL
USER_CHARGES

@<TRIPOS>ATOM
      1 PG         -5.3253    2.0517   -3.1268 P.3       1 ATP         1.5257
      2 O1G        -5.1539    0.5853   -3.4549 O.co2     1 ATP        -0.8737
      3 O2G        -4.9919    3.1200   -4.1444 O.co2     1 ATP        -0.8737
      4 O3G        -6.8540    2.2914   -2.6055 O.3       1 ATP        -0.7971
      5 PB         -4.5113    3.7495   -0.8468 P.3       1 ATP         1.6824
      6 O1B        -3.8138    4.8314   -1.6409 O.co2     1 ATP        -0.8925
      7 O2B        -5.8878    3.9720   -0.2608 O.co2     1 ATP        -0.8925
      8 O3B        -4.5362    2.3808   -1.7366 O.3       1 ATP        -0.8047
      9 PA         -2.9646    4.0418    1.6587 P.3       1 ATP         1.5908
     10 O1A        -4.1353    4.3308    2.5732 O.co2     1 ATP        -0.8932
     11 O2A        -2.0512    5.1559    1.1958 O.co2     1 ATP        -0.8932
     12 O3A        -3.5115    3.2453    0.3410 O.3       1 ATP        -0.8088
     13 O5'        -2.0401    2.8620    2.3128 O.3       1 ATP        -0.5646
     14 C5'        -0.8811    2.4285    1.6206 C.3       1 ATP         0.2204
     15 C4'        -0.1994    1.3333    2.4288 C.3       1 ATP         0.0965
     16 O4'        -1.1285    0.2356    2.5840 O.3       1 ATP        -0.3907
     17 C3'         1.0324    0.7610    1.7344 C.3       1 ATP         0.0763
     18 O3'         1.9175    0.2377    2.7247 O.3       1 ATP        -0.5884
     19 C2'         0.4468   -0.3802    0.9263 C.3       1 ATP         0.0784
     20 O2'         1.3993   -1.3703    0.5961 O.3       1 ATP        -0.6085
     21 C1'        -0.6159   -0.9100    1.8769 C.3       1 ATP         0.2186
     22 N9         -1.7127   -1.6108    1.2130 N.pl3     1 ATP        -0.1699
     23 C8         -1.6202   -2.3321    0.0482 C.ar      1 ATP         0.4438
     24 N7         -2.7754   -2.8539   -0.3142 N.2       1 ATP        -0.6280
     25 C5         -3.6439   -2.4502    0.6592 C.ar      1 ATP         0.2109
     26 C6         -5.0563   -2.7308    0.7745 C.ar      1 ATP         0.6180
     27 N6         -5.6468   -3.4480   -0.1158 N.2       1 ATP        -0.8319
     28 N1         -5.5549   -2.1241    1.9191 N.pl3     1 ATP        -0.8664
     29 C2         -4.8068   -1.3637    2.8153 C.ar      1 ATP         0.5952
     30 N3         -3.5318   -1.0957    2.7338 N.2       1 ATP        -0.5599
     31 C4         -3.0130   -1.6778    1.6196 C.ar      1 ATP         0.0076
     32 HOG3       -7.1236    3.1997   -2.3514 H         1 ATP         0.4101
     33 H5'1       -1.1767    2.0502    0.6368 H         1 ATP         0.0364
     34 H5'2       -0.2080    3.2814    1.4876 H         1 ATP         0.0364
     35 H4'         0.0403    1.7078    3.4343 H         1 ATP         0.0945
     36 H3'         1.5907    1.4859    1.1353 H         1 ATP         0.0703
     37 HO3'        2.1521    0.9800    3.3017 H         1 ATP         0.4099
     38 H2'        -0.0017    0.0018    0.0005 H         1 ATP         0.0676
     39 HO2'        2.0953   -0.9375    0.0709 H         1 ATP         0.4291
     40 H1'        -0.1998   -1.6319    2.6178 H         1 ATP         0.0950
     41 H8         -0.6865   -2.4395   -0.4871 H         1 ATP         0.1135
     42 HN62       -6.6394   -3.5426    0.1257 H         1 ATP         0.3588
     43 H2         -5.4125   -0.9811    3.6517 H         1 ATP         0.0302
     44 H44        -6.5442   -2.2475    2.1195 H         1 ATP         0.4215
@<TRIPOS>BOND
     1    1    2 2
     2    1    3 1
     3    1    4 1
     4    1    8 1
     5    4   32 1
     6    5    6 2
     7    5    7 1
     8    5    8 1
     9    5   12 1
    10    9   10 2
    11    9   11 1
    12    9   12 1
    13    9   13 1
    14   13   14 1
    15   14   15 1
    16   14   33 1
    17   14   34 1
    18   15   16 1
    19   15   17 1
    20   15   35 1
    21   16   21 1
    22   17   18 1
    23   17   19 1
    24   17   36 1
    25   18   37 1
    26   19   20 1
    27   19   21 1
    28   19   38 1
    29   20   39 1
    30   21   22 1
    31   21   40 1
    32   22   23 ar
    33   22   31 ar
    34   23   24 ar
    35   23   41 1
    36   24   25 ar
    37   25   26 ar
    38   25   31 ar
    39   26   27 2
    40   26   28 ar
    41   27   42 1
    42   28   29 ar
    43   28   44 1
    44   29   30 ar
    45   29   43 1
    46   30   31 ar
@<TRIPOS>SUBSTRUCTURE
     1 ATP         1 GROUP 0 A     ****
@<TRIPOS>MOLECULE
[[[3,4-dihydroxy-5-(6-imino-1~{H}-purin-9-yl)tetrahydrofuran-2-yl]methoxy-oxido-phosphoryl]oxy-oxido-phosphoryl] hydrogen phosphate
   44    46     1     0     0
SMALL
USER_CHARGES

@<TRIPOS>ATOM
      1 PG          2.9322    7.1006   -2.1856 P.3       1 ATP         1.5257
      2 O1G         4.0415    6.4289   -2.9639 O.co2     1 ATP        -0.8737
      3 O2G         3.2169    8.2903   -1.2960 O.co2     1 ATP        -0.8737
      4 O3G         1.7399    7.5044   -3.2255 O.3       1 ATP        -0.7971
      5 PB          1.4493    4.5708   -1.8053 P.3       1 ATP         1.6824
      6 O1B         0.2745    4.8897   -2.7029 O.co2     1 ATP        -0.8925
      7 O2B         2.5436    3.6275   -2.2527 O.co2     1 ATP        -0.8925
      8 O3B         2.1323    5.9719   -1.3195 O.3       1 ATP        -0.8047
      9 PA         -0.1844    4.7788    0.6530 P.3       1 ATP         1.5908
     10 O1A        -1.5385    4.8262   -0.0211 O.co2     1 ATP        -0.8932
     11 O2A         0.4501    6.0373    1.2036 O.co2     1 ATP        -0.8932
     12 O3A         0.8819    4.0669   -0.3600 O.3       1 ATP        -0.8088
     13 O5'        -0.2062    3.6557    1.8417 O.3       1 ATP        -0.5646
     14 C5'        -0.8811    2.4285    1.6206 C.3       1 ATP         0.2204
     15 C4'        -0.1994    1.3333    2.4288 C.3       1 ATP         0.0965
     16 O4'        -1.1285    0.2356    2.5840 O.3       1 ATP        -0.3907
     17 C3'         1.0324    0.7610    1.7344 C.3       1 ATP         0.0763
     18 O3'         1.9175    0.2377    2.7247 O.3       1 ATP        -0.5884
     19 C2'         0.4468   -0.3802    0.9263 C.3       1 ATP         0.0784
     20 O2'         1.3993   -1.3703    0.5961 O.3       1 ATP        -0.6085
     21 C1'        -0.6159   -0.9100    1.8769 C.3       1 ATP         0.2186
     22 N9         -1.7127   -1.6108    1.2130 N.pl3     1 ATP        -0.1699
     23 C8         -2.8662   -1.0361    0.7388 C.ar      1 ATP         0.4438
     24 N7         -3.6774   -1.9166    0.1867 N.2       1 ATP        -0.6280
     25 C5         -3.0159   -3.1045    0.3122 C.ar      1 ATP         0.2109
     26 C6         -3.4377   -4.4169   -0.1199 C.ar      1 ATP         0.6180
     27 N6         -4.5720   -4.5691   -0.7080 N.2       1 ATP        -0.8319
     28 N1         -2.4600   -5.3463    0.2071 N.pl3     1 ATP        -0.8664
     29 C2         -1.2595   -5.0554    0.8515 C.ar      1 ATP         0.5952
     30 N3         -0.8555   -3.8803    1.2516 N.2       1 ATP        -0.5599
     31 C4         -1.7946   -2.9457    0.9448 C.ar      1 ATP         0.0076
     32 HOG3        1.3040    6.7894   -3.7364 H         1 ATP         0.4101
     33 H5'1       -1.9256    2.5380    1.9293 H         1 ATP         0.0364
     34 H5'2       -0.8474    2.1930    0.5521 H         1 ATP         0.0364
     35 H4'         0.0403    1.7078    3.4343 H         1 ATP         0.0945
     36 H3'         1.5907    1.4859    1.1353 H         1 ATP         0.0703
     37 HO3'        2.1521    0.9800    3.3017 H         1 ATP         0.4099
     38 H2'        -0.0017    0.0018    0.0005 H         1 ATP         0.0676
     39 HO2'        0.9369   -2.0558    0.0825 H         1 ATP         0.4291
     40 H1'        -0.1998   -1.6319    2.6178 H         1 ATP         0.0950
     41 H8         -3.0558    0.0252    0.8256 H         1 ATP         0.1135
     42 HN62       -4.7047   -5.5592   -0.9421 H         1 ATP         0.3588
     43 H2         -0.6372   -5.9505    1.0077 H         1 ATP         0.0302
     44 H44        -2.6338   -6.3155   -0.0469 H         1 ATP         0.4215
@<TRIPOS>BOND
     1    1    2 2
     2    1    3 1
     3    1    4 1
     4    1    8 1
     5    4   32 1
     6    5    6 2
     7    5    7 1
     8    5    8 1
     9    5   12 1
    10    9   10 2
    11    9   11 1
    12    9   12 1
    13    9   13 1
    14   13   14 1
    15   14   15 1
    16   14   33 1
    17   14   34 1
    18   15   16 1
    19   15   17 1
    20   15   35 1
    21   16   21 1
    22   17   18 1
    23   17   19 1
    24   17   36 1
    25   18   37 1
    26   19   20 1
    27   19   21 1
    28   19   38 1
    29   20   39 1
    30   21   22 1
    31   21   40 1
    32   22   23 ar
    33   22   31 ar
    34   23   24 ar
    35   23   41 1
    36   24   25 ar
    37   25   26 ar
    38   25   31 ar
    39   26   27 2
    40   26   28 ar
    41   27   42 1
    42   28   29 ar
    43   28   44 1
    44   29   30 ar
    45   29   43 1
    46   30   31 ar
@<TRIPOS>SUBSTRUCTURE
     1 ATP         1 GROUP 0 A     ****
@<TRIPOS>MOLECULE
[[[3,4-dihydroxy-5-(6-imino-1~{H}-purin-9-yl)tetrahydrofuran-2-yl]methoxy-oxido-phosphoryl]oxy-oxido-phosphoryl] hydrogen phosphate
   44    46     1     0     0
SMALL
USER_CHARGES

@<TRIPOS>ATOM
      1 PG          4.8635    7.7545   -3.7782 P.3       1 ATP         1.5257
      2 O1G         5.7559    7.3888   -4.9433 O.co2     1 ATP        -0.8737
      3 O2G         5.1982    8.9245   -2.8800 O.co2     1 ATP        -0.8737
      4 O3G         3.3395    7.9456   -4.3322 O.3       1 ATP        -0.7971
      5 PB          4.0976    4.9431   -3.2748 P.3       1 ATP         1.6824
      6 O1B         2.6532    5.0472   -3.7111 O.co2     1 ATP        -0.8925
      7 O2B         5.1376    4.2905   -4.1580 O.co2     1 ATP        -0.8925
      8 O3B         4.6259    6.4298   -2.8549 O.3       1 ATP        -0.8047
      9 PA          5.4151    4.0218   -0.7908 P.3       1 ATP         1.5908
     10 O1A         5.9087    5.3740   -0.3236 O.co2     1 ATP        -0.8932
     11 O2A         6.3635    3.0302   -1.4286 O.co2     1 ATP        -0.8932
     12 O3A         4.1498    4.2446   -1.8003 O.3       1 ATP        -0.8088
     13 O5'         4.6405    3.2699    0.4378 O.3       1 ATP        -0.5646
     14 C5'         4.0922    1.9801    0.2227 C.3       1 ATP         0.2204
     15 C4'         2.5944    2.0310    0.4653 C.3       1 ATP         0.0965
     16 O4'         1.9327    2.5740   -0.6889 O.3       1 ATP        -0.3907
     17 C3'         1.9685    0.6634    0.6767 C.3       1 ATP         0.0763
     18 O3'         2.1425    0.1975    1.9977 O.3       1 ATP        -0.5884
     19 C2'         0.5176    0.9128    0.3099 C.3       1 ATP         0.0784
     20 O2'        -0.2103    1.4454    1.4152 O.3       1 ATP        -0.6085
     21 C1'         0.6219    1.9765   -0.7844 C.3       1 ATP         0.2186
     22 N9          0.4237    1.4496   -2.1357 N.pl3     1 ATP        -0.1699
     23 C8          1.4069    0.9710   -2.9662 C.ar      1 ATP         0.4438
     24 N7          0.9316    0.5623   -4.1260 N.2       1 ATP        -0.6280
     25 C5         -0.4120    0.7884   -4.0344 C.ar      1 ATP         0.2109
     26 C6         -1.4353    0.5283   -5.0204 C.ar      1 ATP         0.6180
     27 N6         -1.1199    0.0176   -6.1586 N.2       1 ATP        -0.8319
     28 N1         -2.6704    0.9095   -4.5147 N.pl3     1 ATP        -0.8664
     29 C2         -2.8863    1.4571   -3.2520 C.ar      1 ATP         0.5952
     30 N3         -1.9805    1.7017   -2.3442 N.2       1 ATP        -0.5599
     31 C4         -0.7561    1.3381   -2.8112 C.ar      1 ATP         0.0076
     32 HOG3        2.6366    8.1864   -3.6917 H         1 ATP         0.4101
     33 H5'1        4.3028    1.6728   -0.8066 H         1 ATP         0.0364
     34 H5'2        4.5677    1.2738    0.9106 H         1 ATP         0.0364
     35 H4'         2.3752    2.7029    1.3156 H         1 ATP         0.0945
     36 H3'         2.4336   -0.1217   -0.0015 H         1 ATP         0.0703
     37 HO3'        1.7160   -0.6716    2.0397 H         1 ATP         0.4099
     38 H2'         0.0316    0.0155   -0.0339 H         1 ATP         0.0676
     39 HO2'       -0.1608    0.7921    2.1351 H         1 ATP         0.4291
     40 H1'        -0.1474    2.7798   -0.6651 H         1 ATP         0.0950
     41 H8          2.4466    0.9468   -2.6694 H         1 ATP         0.1135
     42 HN62       -1.9661   -0.0965   -6.7275 H         1 ATP         0.3588
     43 H2         -3.9481    1.6825   -3.0660 H         1 ATP         0.0302
     44 H44        -3.4814    0.7753   -5.1133 H         1 ATP         0.4215
@<TRIPOS>BOND
     1    1    2 2
     2    1    3 1
     3    1    4 1
     4    1    8 1
     5    4   32 1
     6    5    6 2
     7    5    7 1
     8    5    8 1
     9    5   12 1
    10    9   10 2
    11    9   11 1
    12    9   12 1
    13    9   13 1
    14   13   14 1
    15   14   15 1
    16   14   33 1
    17   14   34 1
    18   15   16 1
    19   15   17 1
    20   15   35 1
    21   16   21 1
    22   17   18 1
    23   17   19 1
    24   17   36 1
    25   18   37 1
    26   19   20 1
    27   19   21 1
    28   19   38 1
    29   20   39 1
    30   21   22 1
    31   21   40 1
    32   22   23 ar
    33   22   31 ar
    34   23   24 ar
    35   23   41 1
    36   24   25 ar
    37   25   26 ar
    38   25   31 ar
    39   26   27 2
    40   26   28 ar
    41   27   42 1
    42   28   29 ar
    43   28   44 1
    44   29   30 ar
    45   29   43 1
    46   30   31 ar
@<TRIPOS>SUBSTRUCTURE
     1 ATP         1 GROUP 0 A     ****
@<TRIPOS>MOLECULE
[[[3,4-dihydroxy-5-(6-imino-1~{H}-purin-9-yl)tetrahydrofuran-2-yl]methoxy-oxido-phosphoryl]oxy-oxido-phosphoryl] hydrogen phosphate
   44    46     1     0     0
SMALL
USER_CHARGES

@<TRIPOS>ATOM
      1 PG         10.0147   -0.2157    0.3437 P.3       1 ATP         1.5257
      2 O1G        11.1294    0.4984    1.0749 O.co2     1 ATP        -0.8737
      3 O2G        10.2412   -0.8105   -1.0284 O.co2     1 ATP        -0.8737
      4 O3G         9.4153   -1.3788    1.3203 O.3       1 ATP        -0.7971
      5 PB          8.4869    2.1716   -0.4990 P.3       1 ATP         1.6824
      6 O1B         9.3894    3.2162    0.1189 O.co2     1 ATP        -0.8925
      7 O2B         8.5023    1.9047   -1.9877 O.co2     1 ATP        -0.8925
      8 O3B         8.7062    0.7584    0.2885 O.3       1 ATP        -0.8047
      9 PA          5.9684    3.7219   -0.4031 P.3       1 ATP         1.5908
     10 O1A         5.6642    3.6839   -1.8851 O.co2     1 ATP        -0.8932
     11 O2A         6.5319    4.9708    0.2391 O.co2     1 ATP        -0.8932
     12 O3A         6.9498    2.4682   -0.0360 O.3       1 ATP        -0.8088
     13 O5'         4.6405    3.2699    0.4378 O.3       1 ATP        -0.5646
     14 C5'         4.0922    1.9801    0.2227 C.3       1 ATP         0.2204
     15 C4'         2.5944    2.0310    0.4653 C.3       1 ATP         0.0965
     16 O4'         1.9327    2.5740   -0.6889 O.3       1 ATP        -0.3907
     17 C3'         1.9685    0.6634    0.6767 C.3       1 ATP         0.0763
     18 O3'         2.1425    0.1975    1.9977 O.3       1 ATP        -0.5884
     19 C2'         0.5176    0.9128    0.3099 C.3       1 ATP         0.0784
     20 O2'        -0.2103    1.4454    1.4152 O.3       1 ATP        -0.6085
     21 C1'         0.6219    1.9765   -0.7844 C.3       1 ATP         0.2186
     22 N9          0.4237    1.4496   -2.1357 N.pl3     1 ATP        -0.1699
     23 C8          1.4069    0.9710   -2.9662 C.ar      1 ATP         0.4438
     24 N7          0.9316    0.5623   -4.1260 N.2       1 ATP        -0.6280
     25 C5         -0.4120    0.7884   -4.0344 C.ar      1 ATP         0.2109
     26 C6         -1.4353    0.5283   -5.0204 C.ar      1 ATP         0.6180
     27 N6         -1.1199    0.0176   -6.1586 N.2       1 ATP        -0.8319
     28 N1         -2.6704    0.9095   -4.5147 N.pl3     1 ATP        -0.8664
     29 C2         -2.8863    1.4571   -3.2520 C.ar      1 ATP         0.5952
     30 N3         -1.9805    1.7017   -2.3442 N.2       1 ATP        -0.5599
     31 C4         -0.7561    1.3381   -2.8112 C.ar      1 ATP         0.0076
     32 HOG3        8.6794   -1.9351    0.9868 H         1 ATP         0.4101
     33 H5'1        4.3028    1.6728   -0.8066 H         1 ATP         0.0364
     34 H5'2        4.5677    1.2738    0.9106 H         1 ATP         0.0364
     35 H4'         2.3752    2.7029    1.3156 H         1 ATP         0.0945
     36 H3'         2.4336   -0.1217   -0.0015 H         1 ATP         0.0703
     37 HO3'        1.7160   -0.6716    2.0397 H         1 ATP         0.4099
     38 H2'         0.0316    0.0155   -0.0339 H         1 ATP         0.0676
     39 HO2'       -0.1608    0.7921    2.1351 H         1 ATP         0.4291
     40 H1'        -0.1474    2.7798   -0.6651 H         1 ATP         0.0950
     41 H8          2.4466    0.9468   -2.6694 H         1 ATP         0.1135
     42 HN62       -1.9661   -0.0965   -6.7275 H         1 ATP         0.3588
     43 H2         -3.9481    1.6825   -3.0660 H         1 ATP         0.0302
     44 H44        -3.4814    0.7753   -5.1133 H         1 ATP         0.4215
@<TRIPOS>BOND
     1    1    2 2
     2    1    3 1
     3    1    4 1
     4    1    8 1
     5    4   32 1
     6    5    6 2
     7    5    7 1
     8    5    8 1
     9    5   12 1
    10    9   10 2
    11    9   11 1
    12    9   12 1
    13    9   13 1
    14   13   14 1
    15   14   15 1
    16   14   33 1
    17   14   34 1
    18   15   16 1
    19   15   17 1
    20   15   35 1
    21   16   21 1
    22   17   18 1
    23   17   19 1
    24   17   36 1
    25   18   37 1
    26   19   20 1
    27   19   21 1
    28   19   38 1
    29   20   39 1
    30   21   22 1
    31   21   40 1
    32   22   23 ar
    33   22   31 ar
    34   23   24 ar
    35   23   41 1
    36   24   25 ar
    37   25   26 ar
    38   25   31 ar
    39   26   27 2
    40   26   28 ar
    41   27   42 1
    42   28   29 ar
    43   28   44 1
    44   29   30 ar
    45   29   43 1
    46   30   31 ar
@<TRIPOS>SUBSTRUCTURE
     1 ATP         1 GROUP 0 A     ****
@<TRIPOS>MOLECULE
[[[3,4-dihydroxy-5-(6-imino-1~{H}-purin-9-yl)tetrahydrofuran-2-yl]methoxy-oxido-phosphoryl]oxy-oxido-phosphoryl] hydrogen phosphate
   44    46     1     0     0
SMALL
USER_CHARGES

@<TRIPOS>ATOM
      1 PG          0.7457    8.2883   -2.1041 P.3       1 ATP         1.5257
      2 O1G        -0.5583    9.0134   -2.3518 O.co2     1 ATP        -0.8737
      3 O2G         1.7007    7.9963   -3.2401 O.co2     1 ATP        -0.8737
      4 O3G         1.5622    9.0760   -0.9299 O.3       1 ATP        -0.7971
      5 PB         -0.3576    5.5624   -1.7942 P.3       1 ATP         1.6824
      6 O1B        -1.8153    5.9116   -1.9961 O.co2     1 ATP        -0.8925
      7 O2B         0.4467    4.8949   -2.8874 O.co2     1 ATP        -0.8925
      8 O3B         0.4378    6.9006   -1.3020 O.3       1 ATP        -0.8047
      9 PA         -0.7385    5.0053    1.0867 P.3       1 ATP         1.5908
     10 O1A        -2.2518    5.0191    1.0855 O.co2     1 ATP        -0.8932
     11 O2A         0.0454    6.1849    1.6194 O.co2     1 ATP        -0.8932
     12 O3A        -0.2149    4.6821   -0.4270 O.3       1 ATP        -0.8088
     13 O5'        -0.2062    3.6557    1.8417 O.3       1 ATP        -0.5646
     14 C5'        -0.8811    2.4285    1.6206 C.3       1 ATP         0.2204
     15 C4'        -0.1994    1.3333    2.4288 C.3       1 ATP         0.0965
     16 O4'        -1.1285    0.2356    2.5840 O.3       1 ATP        -0.3907
     17 C3'         1.0324    0.7610    1.7344 C.3       1 ATP         0.0763
     18 O3'         1.9175    0.2377    2.7247 O.3       1 ATP        -0.5884
     19 C2'         0.4468   -0.3802    0.9263 C.3       1 ATP         0.0784
     20 O2'         1.3993   -1.3703    0.5961 O.3       1 ATP        -0.6085
     21 C1'        -0.6159   -0.9100    1.8769 C.3       1 ATP         0.2186
     22 N9         -1.7127   -1.6108    1.2130 N.pl3     1 ATP        -0.1699
     23 C8         -2.5485   -1.0808    0.2609 C.ar      1 ATP         0.4438
     24 N7         -3.4476   -1.9486   -0.1593 N.2       1 ATP        -0.6280
     25 C5         -3.1762   -3.0816    0.5530 C.ar      1 ATP         0.2109
     26 C6         -3.8510   -4.3579    0.5006 C.ar      1 ATP         0.6180
     27 N6         -4.8468   -4.5293   -0.2961 N.2       1 ATP        -0.8319
     28 N1         -3.2499   -5.2342    1.3937 N.pl3     1 ATP        -0.8664
     29 C2         -2.1646   -4.9275    2.2116 C.ar      1 ATP         0.5952
     30 N3         -1.5382   -3.7840    2.2778 N.2       1 ATP        -0.5599
     31 C4         -2.1054   -2.9018    1.4120 C.ar      1 ATP         0.0076
     32 HOG3        1.1418    9.1650   -0.0480 H         1 ATP         0.4101
     33 H5'1       -1.9256    2.5380    1.9293 H         1 ATP         0.0364
     34 H5'2       -0.8474    2.1930    0.5521 H         1 ATP         0.0364
     35 H4'         0.0403    1.7078    3.4343 H         1 ATP         0.0945
     36 H3'         1.5907    1.4859    1.1353 H         1 ATP         0.0703
     37 HO3'        2.6839   -0.1150    2.2479 H         1 ATP         0.4099
     38 H2'        -0.0017    0.0018    0.0005 H         1 ATP         0.0676
     39 HO2'        2.0953   -0.9375    0.0709 H         1 ATP         0.4291
     40 H1'        -0.1998   -1.6319    2.6178 H         1 ATP         0.0950
     41 H8         -2.4515   -0.0599   -0.0829 H         1 ATP         0.1135
     42 HN62       -5.1990   -5.4882   -0.2005 H         1 ATP         0.3588
     43 H2         -1.8555   -5.7783    2.8388 H         1 ATP         0.0302
     44 H44        -3.6312   -6.1750    1.4526 H         1 ATP         0.4215
@<TRIPOS>BOND
     1    1    2 2
     2    1    3 1
     3    1    4 1
     4    1    8 1
     5    4   32 1
     6    5    6 2
     7    5    7 1
     8    5    8 1
     9    5   12 1
    10    9   10 2
    11    9   11 1
    12    9   12 1
    13    9   13 1
    14   13   14 1
    15   14   15 1
    16   14   33 1
    17   14   34 1
    18   15   16 1
    19   15   17 1
    20   15   35 1
    21   16   21 1
    22   17   18 1
    23   17   19 1
    24   17   36 1
    25   18   37 1
    26   19   20 1
    27   19   21 1
    28   19   38 1
    29   20   39 1
    30   21   22 1
    31   21   40 1
    32   22   23 ar
    33   22   31 ar
    34   23   24 ar
    35   23   41 1
    36   24   25 ar
    37   25   26 ar
    38   25   31 ar
    39   26   27 2
    40   26   28 ar
    41   27   42 1
    42   28   29 ar
    43   28   44 1
    44   29   30 ar
    45   29   43 1
    46   30   31 ar
@<TRIPOS>SUBSTRUCTURE
     1 ATP         1 GROUP 0 A     ****
@<TRIPOS>MOLECULE
[[[3,4-dihydroxy-5-(6-imino-1~{H}-purin-9-yl)tetrahydrofuran-2-yl]methoxy-oxido-phosphoryl]oxy-oxido-phosphoryl] hydrogen phosphate
   44    46     1     0     0
SMALL
USER_CHARGES

@<TRIPOS>ATOM
      1 PG         -0.5942    8.8457    0.5396 P.3       1 ATP         1.5257
      2 O1G         0.7782    9.2364    1.0409 O.co2     1 ATP        -0.8737
      3 O2G        -1.7822    9.7616    0.7332 O.co2     1 ATP        -0.8737
      4 O3G        -0.4804    8.4722   -1.0458 O.3       1 ATP        -0.7971
      5 PB         -1.2528    6.8802    2.6483 P.3       1 ATP         1.6824
      6 O1B         0.0307    6.9970    3.4398 O.co2     1 ATP        -0.8925
      7 O2B        -2.5325    7.5254    3.1315 O.co2     1 ATP        -0.8925
      8 O3B        -0.9685    7.3651    1.1155 O.3       1 ATP        -0.8047
      9 PA         -1.9156    4.0918    3.3837 P.3       1 ATP         1.5908
     10 O1A        -3.2735    4.3719    3.9903 O.co2     1 ATP        -0.8932
     11 O2A        -0.7136    3.8310    4.2651 O.co2     1 ATP        -0.8932
     12 O3A        -1.5422    5.3014    2.3507 O.3       1 ATP        -0.8088
     13 O5'        -2.0401    2.8620    2.3128 O.3       1 ATP        -0.5646
     14 C5'        -0.8811    2.4285    1.6206 C.3       1 ATP         0.2204
     15 C4'        -0.1994    1.3333    2.4288 C.3       1 ATP         0.0965
     16 O4'        -1.1285    0.2356    2.5840 O.3       1 ATP        -0.3907
     17 C3'         1.0324    0.7610    1.7344 C.3       1 ATP         0.0763
     18 O3'         1.9175    0.2377    2.7247 O.3       1 ATP        -0.5884
     19 C2'         0.4468   -0.3802    0.9263 C.3       1 ATP         0.0784
     20 O2'         1.3993   -1.3703    0.5961 O.3       1 ATP        -0.6085
     21 C1'        -0.6159   -0.9100    1.8769 C.3       1 ATP         0.2186
     22 N9         -1.7127   -1.6108    1.2130 N.pl3     1 ATP        -0.1699
     23 C8         -1.7690   -2.9583    0.9549 C.ar      1 ATP         0.4438
     24 N7         -2.8827   -3.3076    0.3418 N.2       1 ATP        -0.6280
     25 C5         -3.5683   -2.1351    0.2017 C.ar      1 ATP         0.2109
     26 C6         -4.8617   -1.9185   -0.4044 C.ar      1 ATP         0.6180
     27 N6         -5.5166   -2.9094   -0.8993 N.2       1 ATP        -0.8319
     28 N1         -5.1837   -0.5701   -0.3344 N.pl3     1 ATP        -0.8664
     29 C2         -4.3821    0.4180    0.2330 C.ar      1 ATP         0.5952
     30 N3         -3.2117    0.2488    0.7860 N.2       1 ATP        -0.5599
     31 C4         -2.8672   -1.0657    0.7327 C.ar      1 ATP         0.0076
     32 HOG3       -1.2936    8.1965   -1.5201 H         1 ATP         0.4101
     33 H5'1       -1.1767    2.0502    0.6368 H         1 ATP         0.0364
     34 H5'2       -0.2080    3.2814    1.4876 H         1 ATP         0.0364
     35 H4'         0.0403    1.7078    3.4343 H         1 ATP         0.0945
     36 H3'         1.5907    1.4859    1.1353 H         1 ATP         0.0703
     37 HO3'        2.1521    0.9800    3.3017 H         1 ATP         0.4099
     38 H2'        -0.0017    0.0018    0.0005 H         1 ATP         0.0676
     39 HO2'        0.9369   -2.0558    0.0825 H         1 ATP         0.4291
     40 H1'        -0.1998   -1.6319    2.6178 H         1 ATP         0.0950
     41 H8         -0.9697   -3.6300    1.2371 H         1 ATP         0.1135
     42 HN62       -6.4060   -2.5723   -1.2840 H         1 ATP         0.3588
     43 H2         -4.8409    1.4176    0.1757 H         1 ATP         0.0302
     44 H44        -6.0768   -0.2826   -0.7263 H         1 ATP         0.4215
@<TRIPOS>BOND
     1    1    2 2
     2    1    3 1
     3    1    4 1
     4    1    8 1
     5    4   32 1
     6    5    6 2
     7    5    7 1
     8    5    8 1
     9    5   12 1
    10    9   10 2
    11    9   11 1
    12    9   12 1
    13    9   13 1
    14   13   14 1
    15   14   15 1
    16   14   33 1
    17   14   34 1
    18   15   16 1
    19   15   17 1
    20   15   35 1
    21   16   21 1
    22   17   18 1
    23   17   19 1
    24   17   36 1
    25   18   37 1
    26   19   20 1
    27   19   21 1
    28   19   38 1
    29   20   39 1
    30   21   22 1
    31   21   40 1
    32   22   23 ar
    33   22   31 ar
    34   23   24 ar
    35   23   41 1
    36   24   25 ar
    37   25   26 ar
    38   25   31 ar
    39   26   27 2
    40   26   28 ar
    41   27   42 1
    42   28   29 ar
    43   28   44 1
    44   29   30 ar
    45   29   43 1
    46   30   31 ar
@<TRIPOS>SUBSTRUCTURE
     1 ATP         1 GROUP 0 A     ****
@<TRIPOS>MOLECULE
[[[3,4-dihydroxy-5-(6-imino-1~{H}-purin-9-yl)tetrahydrofuran-2-yl]methoxy-oxido-phosphoryl]oxy-oxido-phosphoryl] hydrogen phosphate
   44    46     1     0     0
SMALL
USER_CHARGES

@<TRIPOS>ATOM
      1 PG          0.6154    2.5429   -4.4785 P.3       1 ATP         1.5257
      2 O1G         1.0198    1.1141   -4.1916 O.co2     1 ATP        -0.8737
      3 O2G         1.5755    3.5037   -5.1439 O.co2     1 ATP        -0.8737
      4 O3G        -0.7765    2.5267   -5.3318 O.3       1 ATP        -0.7971
      5 PB          0.8421    3.5905   -1.7226 P.3       1 ATP         1.6824
      6 O1B         1.2750    2.3049   -1.0539 O.co2     1 ATP        -0.8925
      7 O2B         1.8330    4.6966   -2.0092 O.co2     1 ATP        -0.8925
      8 O3B         0.0545    3.2223   -3.1046 O.3       1 ATP        -0.8047
      9 PA         -0.4665    4.8322    0.6228 P.3       1 ATP         1.5908
     10 O1A        -1.9050    5.1497    0.9698 O.co2     1 ATP        -0.8932
     11 O2A         0.6096    5.8892    0.7429 O.co2     1 ATP        -0.8932
     12 O3A        -0.4148    4.2162   -0.8897 O.3       1 ATP        -0.8088
     13 O5'         0.0178    3.5131    1.4595 O.3       1 ATP        -0.5646
     14 C5'        -0.8811    2.4285    1.6206 C.3       1 ATP         0.2204
     15 C4'        -0.1994    1.3333    2.4288 C.3       1 ATP         0.0965
     16 O4'        -1.1285    0.2356    2.5840 O.3       1 ATP        -0.3907
     17 C3'         1.0324    0.7610    1.7344 C.3       1 ATP         0.0763
     18 O3'         1.9175    0.2377    2.7247 O.3       1 ATP        -0.5884
     19 C2'         0.4468   -0.3802    0.9263 C.3       1 ATP         0.0784
     20 O2'         1.3993   -1.3703    0.5961 O.3       1 ATP        -0.6085
     21 C1'        -0.6159   -0.9100    1.8769 C.3       1 ATP         0.2186
     22 N9         -1.7127   -1.6108    1.2130 N.pl3     1 ATP        -0.1699
     23 C8         -2.5485   -1.0808    0.2609 C.ar      1 ATP         0.4438
     24 N7         -3.4476   -1.9486   -0.1593 N.2       1 ATP        -0.6280
     25 C5         -3.1762   -3.0816    0.5530 C.ar      1 ATP         0.2109
     26 C6         -3.8510   -4.3579    0.5006 C.ar      1 ATP         0.6180
     27 N6         -4.8468   -4.5293   -0.2961 N.2       1 ATP        -0.8319
     28 N1         -3.2499   -5.2342    1.3937 N.pl3     1 ATP        -0.8664
     29 C2         -2.1646   -4.9275    2.2116 C.ar      1 ATP         0.5952
     30 N3         -1.5382   -3.7840    2.2778 N.2       1 ATP        -0.5599
     31 C4         -2.1054   -2.9018    1.4120 C.ar      1 ATP         0.0076
     32 HOG3       -1.5667    2.1081   -4.9283 H         1 ATP         0.4101
     33 H5'1       -1.7771    2.7849    2.1387 H         1 ATP         0.0364
     34 H5'2       -1.1654    2.0541    0.6320 H         1 ATP         0.0364
     35 H4'         0.0403    1.7078    3.4343 H         1 ATP         0.0945
     36 H3'         1.5907    1.4859    1.1353 H         1 ATP         0.0703
     37 HO3'        2.6839   -0.1150    2.2479 H         1 ATP         0.4099
     38 H2'        -0.0017    0.0018    0.0005 H         1 ATP         0.0676
     39 HO2'        2.0953   -0.9375    0.0709 H         1 ATP         0.4291
     40 H1'        -0.1998   -1.6319    2.6178 H         1 ATP         0.0950
     41 H8         -2.4515   -0.0599   -0.0829 H         1 ATP         0.1135
     42 HN62       -5.1990   -5.4882   -0.2005 H         1 ATP         0.3588
     43 H2         -1.8555   -5.7783    2.8388 H         1 ATP         0.0302
     44 H44        -3.6312   -6.1750    1.4526 H         1 ATP         0.4215
@<TRIPOS>BOND
     1    1    2 2
     2    1    3 1
     3    1    4 1
     4    1    8 1
     5    4   32 1
     6    5    6 2
     7    5    7 1
     8    5    8 1
     9    5   12 1
    10    9   10 2
    11    9   11 1
    12    9   12 1
    13    9   13 1
    14   13   14 1
    15   14   15 1
    16   14   33 1
    17   14   34 1
    18   15   16 1
    19   15   17 1
    20   15   35 1
    21   16   21 1
    22   17   18 1
    23   17   19 1
    24   17   36 1
    25   18   37 1
    26   19   20 1
    27   19   21 1
    28   19   38 1
    29   20   39 1
    30   21   22 1
    31   21   40 1
    32   22   23 ar
    33   22   31 ar
    34   23   24 ar
    35   23   41 1
    36   24   25 ar
    37   25   26 ar
    38   25   31 ar
    39   26   27 2
    40   26   28 ar
    41   27   42 1
    42   28   29 ar
    43   28   44 1
    44   29   30 ar
    45   29   43 1
    46   30   31 ar
@<TRIPOS>SUBSTRUCTURE
     1 ATP         1 GROUP 0 A     ****
@<TRIPOS>MOLECULE
[[[3,4-dihydroxy-5-(6-imino-1~{H}-purin-9-yl)tetrahydrofuran-2-yl]methoxy-oxido-phosphoryl]oxy-oxido-phosphoryl] hydrogen phosphate
   44    46     1     0     0
SMALL
USER_CHARGES

@<TRIPOS>ATOM
      1 PG         -1.4996    7.5702   -1.9976 P.3       1 ATP         1.5257
      2 O1G        -2.2029    8.8200   -1.5171 O.co2     1 ATP        -0.8737
      3 O2G        -1.7238    7.0413   -3.3968 O.co2     1 ATP        -0.8737
      4 O3G         0.1057    7.7565   -1.7648 O.3       1 ATP        -0.7971
      5 PB         -3.1521    5.5916   -0.5491 P.3       1 ATP         1.6824
      6 O1B        -4.0824    6.5688    0.1344 O.co2     1 ATP        -0.8925
      7 O2B        -3.6030    4.7895   -1.7495 O.co2     1 ATP        -0.8925
      8 O3B        -1.7658    6.3664   -0.9281 O.3       1 ATP        -0.8047
      9 PA         -3.3161    3.4234    1.4576 P.3       1 ATP         1.5908
     10 O1A        -3.8159    2.3395    0.5272 O.co2     1 ATP        -0.8932
     11 O2A        -4.2599    4.1154    2.4166 O.co2     1 ATP        -0.8932
     12 O3A        -2.5549    4.5661    0.5718 O.3       1 ATP        -0.8088
     13 O5'        -2.0401    2.8620    2.3128 O.3       1 ATP        -0.5646
     14 C5'        -0.8811    2.4285    1.6206 C.3       1 ATP         0.2204
     15 C4'        -0.1994    1.3333    2.4288 C.3       1 ATP         0.0965
     16 O4'        -1.1285    0.2356    2.5840 O.3       1 ATP        -0.3907
     17 C3'         1.0324    0.7610    1.7344 C.3       1 ATP         0.0763
     18 O3'         1.9175    0.2377    2.7247 O.3       1 ATP        -0.5884
     19 C2'         0.4468   -0.3802    0.9263 C.3       1 ATP         0.0784
     20 O2'         1.3993   -1.3703    0.5961 O.3       1 ATP        -0.6085
     21 C1'        -0.6159   -0.9100    1.8769 C.3       1 ATP         0.2186
     22 N9         -1.7127   -1.6108    1.2130 N.pl3     1 ATP        -0.1699
     23 C8         -1.6202   -2.3321    0.0482 C.ar      1 ATP         0.4438
     24 N7         -2.7754   -2.8539   -0.3142 N.2       1 ATP        -0.6280
     25 C5         -3.6439   -2.4502    0.6592 C.ar      1 ATP         0.2109
     26 C6         -5.0563   -2.7308    0.7745 C.ar      1 ATP         0.6180
     27 N6         -5.6468   -3.4480   -0.1158 N.2       1 ATP        -0.8319
     28 N1         -5.5549   -2.1241    1.9191 N.pl3     1 ATP        -0.8664
     29 C2         -4.8068   -1.3637    2.8153 C.ar      1 ATP         0.5952
     30 N3         -3.5318   -1.0957    2.7338 N.2       1 ATP        -0.5599
     31 C4         -3.0130   -1.6778    1.6196 C.ar      1 ATP         0.0076
     32 HOG3        0.7037    7.0249   -2.0285 H         1 ATP         0.4101
     33 H5'1       -1.1767    2.0502    0.6368 H         1 ATP         0.0364
     34 H5'2       -0.2080    3.2814    1.4876 H         1 ATP         0.0364
     35 H4'         0.0403    1.7078    3.4343 H         1 ATP         0.0945
     36 H3'         1.5907    1.4859    1.1353 H         1 ATP         0.0703
     37 HO3'        2.6839   -0.1150    2.2479 H         1 ATP         0.4099
     38 H2'        -0.0017    0.0018    0.0005 H         1 ATP         0.0676
     39 HO2'        2.0953   -0.9375    0.0709 H         1 ATP         0.4291
     40 H1'        -0.1998   -1.6319    2.6178 H         1 ATP         0.0950
     41 H8         -0.6865   -2.4395   -0.4871 H         1 ATP         0.1135
     42 HN62       -6.6394   -3.5426    0.1257 H         1 ATP         0.3588
     43 H2         -5.4125   -0.9811    3.6517 H         1 ATP         0.0302
     44 H44        -6.5442   -2.2475    2.1195 H         1 ATP         0.4215
@<TRIPOS>BOND
     1    1    2 2
     2    1    3 1
     3    1    4 1
     4    1    8 1
     5    4   32 1
     6    5    6 2
     7    5    7 1
     8    5    8 1
     9    5   12 1
    10    9   10 2
    11    9   11 1
    12    9   12 1
    13    9   13 1
    14   13   14 1
    15   14   15 1
    16   14   33 1
    17   14   34 1
    18   15   16 1
    19   15   17 1
    20   15   35 1
    21   16   21 1
    22   17   18 1
    23   17   19 1
    24   17   36 1
    25   18   37 1
    26   19   20 1
    27   19   21 1
    28   19   38 1
    29   20   39 1
    30   21   22 1
    31   21   40 1
    32   22   23 ar
    33   22   31 ar
    34   23   24 ar
    35   23   41 1
    36   24   25 ar
    37   25   26 ar
    38   25   31 ar
    39   26   27 2
    40   26   28 ar
    41   27   42 1
    42   28   29 ar
    43   28   44 1
    44   29   30 ar
    45   29   43 1
    46   30   31 ar
@<TRIPOS>SUBSTRUCTURE
     1 ATP         1 GROUP 0 A     ****
@<TRIPOS>MOLECULE
[[[3,4-dihydroxy-5-(6-imino-1~{H}-purin-9-yl)tetrahydrofuran-2-yl]methoxy-oxido-phosphoryl]oxy-oxido-phosphoryl] hydrogen phosphate
   44    46     1     0     0
SMALL
USER_CHARGES

@<TRIPOS>ATOM
      1 PG         -2.0892    5.6067   -1.9926 P.3       1 ATP         1.5257
      2 O1G        -2.2172    4.8545   -3.2984 O.co2     1 ATP        -0.8737
      3 O2G        -1.0428    5.2191   -0.9716 O.co2     1 ATP        -0.8737
      4 O3G        -1.9260    7.1972   -2.3240 O.3       1 ATP        -0.7971
      5 PB         -4.4385    4.4456   -0.6228 P.3       1 ATP         1.6824
      6 O1B        -5.6345    5.0446    0.0829 O.co2     1 ATP        -0.8925
      7 O2B        -4.6055    3.3629   -1.6656 O.co2     1 ATP        -0.8925
      8 O3B        -3.5481    5.6554   -1.2624 O.3       1 ATP        -0.8047
      9 PA         -3.5002    2.7198    1.5899 P.3       1 ATP         1.5908
     10 O1A        -3.5694    1.4028    0.8475 O.co2     1 ATP        -0.8932
     11 O2A        -4.5647    3.0969    2.5970 O.co2     1 ATP        -0.8932
     12 O3A        -3.3718    3.9308    0.5005 O.3       1 ATP        -0.8088
     13 O5'        -2.0401    2.8620    2.3128 O.3       1 ATP        -0.5646
     14 C5'        -0.8811    2.4285    1.6206 C.3       1 ATP         0.2204
     15 C4'        -0.1994    1.3333    2.4288 C.3       1 ATP         0.0965
     16 O4'        -1.1285    0.2356    2.5840 O.3       1 ATP        -0.3907
     17 C3'         1.0324    0.7610    1.7344 C.3       1 ATP         0.0763
     18 O3'         1.9175    0.2377    2.7247 O.3       1 ATP        -0.5884
     19 C2'         0.4468   -0.3802    0.9263 C.3       1 ATP         0.0784
     20 O2'         1.3993   -1.3703    0.5961 O.3       1 ATP        -0.6085
     21 C1'        -0.6159   -0.9100    1.8769 C.3       1 ATP         0.2186
     22 N9         -1.7127   -1.6108    1.2130 N.pl3     1 ATP        -0.1699
     23 C8         -1.6202   -2.3321    0.0482 C.ar      1 ATP         0.4438
     24 N7         -2.7754   -2.8539   -0.3142 N.2       1 ATP        -0.6280
     25 C5         -3.6439   -2.4502    0.6592 C.ar      1 ATP         0.2109
     26 C6         -5.0563   -2.7308    0.7745 C.ar      1 ATP         0.6180
     27 N6         -5.6468   -3.4480   -0.1158 N.2       1 ATP        -0.8319
     28 N1         -5.5549   -2.1241    1.9191 N.pl3     1 ATP        -0.8664
     29 C2         -4.8068   -1.3637    2.8153 C.ar      1 ATP         0.5952
     30 N3         -3.5318   -1.0957    2.7338 N.2       1 ATP        -0.5599
     31 C4         -3.0130   -1.6778    1.6196 C.ar      1 ATP         0.0076
     32 HOG3       -1.8313    7.8230   -1.5746 H         1 ATP         0.4101
     33 H5'1       -1.1767    2.0502    0.6368 H         1 ATP         0.0364
     34 H5'2       -0.2080    3.2814    1.4876 H         1 ATP         0.0364
     35 H4'         0.0403    1.7078    3.4343 H         1 ATP         0.0945
     36 H3'         1.5907    1.4859    1.1353 H         1 ATP         0.0703
     37 HO3'        2.6839   -0.1150    2.2479 H         1 ATP         0.4099
     38 H2'        -0.0017    0.0018    0.0005 H         1 ATP         0.0676
     39 HO2'        2.0953   -0.9375    0.0709 H         1 ATP         0.4291
     40 H1'        -0.1998   -1.6319    2.6178 H         1 ATP         0.0950
     41 H8         -0.6865   -2.4395   -0.4871 H         1 ATP         0.1135
     42 HN62       -6.6394   -3.5426    0.1257 H         1 ATP         0.3588
     43 H2         -5.4125   -0.9811    3.6517 H         1 ATP         0.0302
     44 H44        -6.5442   -2.2475    2.1195 H         1 ATP         0.4215
@<TRIPOS>BOND
     1    1    2 2
     2    1    3 1
     3    1    4 1
     4    1    8 1
     5    4   32 1
     6    5    6 2
     7    5    7 1
     8    5    8 1
     9    5   12 1
    10    9   10 2
    11    9   11 1
    12    9   12 1
    13    9   13 1
    14   13   14 1
    15   14   15 1
    16   14   33 1
    17   14   34 1
    18   15   16 1
    19   15   17 1
    20   15   35 1
    21   16   21 1
    22   17   18 1
    23   17   19 1
    24   17   36 1
    25   18   37 1
    26   19   20 1
    27   19   21 1
    28   19   38 1
    29   20   39 1
    30   21   22 1
    31   21   40 1
    32   22   23 ar
    33   22   31 ar
    34   23   24 ar
    35   23   41 1
    36   24   25 ar
    37   25   26 ar
    38   25   31 ar
    39   26   27 2
    40   26   28 ar
    41   27   42 1
    42   28   29 ar
    43   28   44 1
    44   29   30 ar
    45   29   43 1
    46   30   31 ar
@<TRIPOS>SUBSTRUCTURE
     1 ATP         1 GROUP 0 A     ****
@<TRIPOS>MOLECULE
[[[3,4-dihydroxy-5-(6-imino-1~{H}-purin-9-yl)tetrahydrofuran-2-yl]methoxy-oxido-phosphoryl]oxy-oxido-phosphoryl] hydrogen phosphate
   44    46     1     0     0
SMALL
USER_CHARGES

@<TRIPOS>ATOM
      1 PG         10.0257    1.1040   -1.8497 P.3       1 ATP         1.5257
      2 O1G        10.9965    2.2514   -2.0183 O.co2     1 ATP        -0.8737
      3 O2G         9.9759   -0.0261   -2.8538 O.co2     1 ATP        -0.8737
      4 O3G        10.2305    0.4658   -0.3608 O.3       1 ATP        -0.7971
      5 PB          7.5743    2.5160   -2.7100 P.3       1 ATP         1.6824
      6 O1B         8.2062    3.8603   -2.9947 O.co2     1 ATP        -0.8925
      7 O2B         7.1864    1.5793   -3.8323 O.co2     1 ATP        -0.8925
      8 O3B         8.5210    1.7055   -1.6553 O.3       1 ATP        -0.8047
      9 PA          6.1593    3.5241   -0.3148 P.3       1 ATP         1.5908
     10 O1A         6.4223    4.9968   -0.5434 O.co2     1 ATP        -0.8932
     11 O2A         6.9473    2.7489    0.7186 O.co2     1 ATP        -0.8932
     12 O3A         6.2776    2.7414   -1.7442 O.3       1 ATP        -0.8088
     13 O5'         4.5670    3.2937   -0.0211 O.3       1 ATP        -0.5646
     14 C5'         4.0922    1.9801    0.2227 C.3       1 ATP         0.2204
     15 C4'         2.5944    2.0310    0.4653 C.3       1 ATP         0.0965
     16 O4'         1.9327    2.5740   -0.6889 O.3       1 ATP        -0.3907
     17 C3'         1.9685    0.6634    0.6767 C.3       1 ATP         0.0763
     18 O3'         2.1425    0.1975    1.9977 O.3       1 ATP        -0.5884
     19 C2'         0.5176    0.9128    0.3099 C.3       1 ATP         0.0784
     20 O2'        -0.2103    1.4454    1.4152 O.3       1 ATP        -0.6085
     21 C1'         0.6219    1.9765   -0.7844 C.3       1 ATP         0.2186
     22 N9          0.4237    1.4496   -2.1357 N.pl3     1 ATP        -0.1699
     23 C8         -0.7779    1.3483   -2.7928 C.ar      1 ATP         0.4438
     24 N7         -0.6499    0.8341   -3.9999 N.2       1 ATP        -0.6280
     25 C5          0.6893    0.5965   -4.1212 C.ar      1 ATP         0.2109
     26 C6          1.4031    0.0342   -5.2443 C.ar      1 ATP         0.6180
     27 N6          0.7649   -0.3130   -6.3063 N.2       1 ATP        -0.8319
     28 N1          2.7566   -0.0326   -4.9437 N.pl3     1 ATP        -0.8664
     29 C2          3.3337    0.3796   -3.7446 C.ar      1 ATP         0.5952
     30 N3          2.7120    0.8899   -2.7163 N.2       1 ATP        -0.5599
     31 C4          1.3803    0.9684   -2.9805 C.ar      1 ATP         0.0076
     32 HOG3        9.6688   -0.2939   -0.0971 H         1 ATP         0.4101
     33 H5'1        4.3179    1.3548   -0.6470 H         1 ATP         0.0364
     34 H5'2        4.6083    1.5737    1.0983 H         1 ATP         0.0364
     35 H4'         2.3752    2.7029    1.3156 H         1 ATP         0.0945
     36 H3'         2.4336   -0.1217   -0.0015 H         1 ATP         0.0703
     37 HO3'        3.0987    0.1465    2.1461 H         1 ATP         0.4099
     38 H2'         0.0316    0.0155   -0.0339 H         1 ATP         0.0676
     39 HO2'       -1.1270    1.5823    1.1180 H         1 ATP         0.4291
     40 H1'        -0.1474    2.7798   -0.6651 H         1 ATP         0.0950
     41 H8         -1.7076    1.6648   -2.3398 H         1 ATP         0.1135
     42 HN62        1.4266   -0.6890   -6.9943 H         1 ATP         0.3588
     43 H2          4.4251    0.2326   -3.7294 H         1 ATP         0.0302
     44 H44         3.3750   -0.4100   -5.6572 H         1 ATP         0.4215
@<TRIPOS>BOND
     1    1    2 2
     2    1    3 1
     3    1    4 1
     4    1    8 1
     5    4   32 1
     6    5    6 2
     7    5    7 1
     8    5    8 1
     9    5   12 1
    10    9   10 2
    11    9   11 1
    12    9   12 1
    13    9   13 1
    14   13   14 1
    15   14   15 1
    16   14   33 1
    17   14   34 1
    18   15   16 1
    19   15   17 1
    20   15   35 1
    21   16   21 1
    22   17   18 1
    23   17   19 1
    24   17   36 1
    25   18   37 1
    26   19   20 1
    27   19   21 1
    28   19   38 1
    29   20   39 1
    30   21   22 1
    31   21   40 1
    32   22   23 ar
    33   22   31 ar
    34   23   24 ar
    35   23   41 1
    36   24   25 ar
    37   25   26 ar
    38   25   31 ar
    39   26   27 2
    40   26   28 ar
    41   27   42 1
    42   28   29 ar
    43   28   44 1
    44   29   30 ar
    45   29   43 1
    46   30   31 ar
@<TRIPOS>SUBSTRUCTURE
     1 ATP         1 GROUP 0 A     ****
@<TRIPOS>MOLECULE
[[[3,4-dihydroxy-5-(6-imino-1~{H}-purin-9-yl)tetrahydrofuran-2-yl]methoxy-oxido-phosphoryl]oxy-oxido-phosphoryl] hydrogen phosphate
   44    46     1     0     0
SMALL
USER_CHARGES

@<TRIPOS>ATOM
      1 PG         -4.4859    4.6997   -3.0329 P.3       1 ATP         1.5257
      2 O1G        -3.5206    5.3168   -4.0203 O.co2     1 ATP        -0.8737
      3 O2G        -5.8394    5.3238   -2.7756 O.co2     1 ATP        -0.8737
      4 O3G        -4.7054    3.1320   -3.4327 O.3       1 ATP        -0.7971
      5 PB         -3.1521    5.5916   -0.5491 P.3       1 ATP         1.6824
      6 O1B        -2.0000    6.3297   -1.1937 O.co2     1 ATP        -0.8925
      7 O2B        -4.3229    6.3378    0.0507 O.co2     1 ATP        -0.8925
      8 O3B        -3.7222    4.4859   -1.6064 O.3       1 ATP        -0.8047
      9 PA         -3.3161    3.4234    1.4576 P.3       1 ATP         1.5908
     10 O1A        -3.8159    2.3395    0.5272 O.co2     1 ATP        -0.8932
     11 O2A        -4.2599    4.1154    2.4166 O.co2     1 ATP        -0.8932
     12 O3A        -2.5549    4.5661    0.5718 O.3       1 ATP        -0.8088
     13 O5'        -2.0401    2.8620    2.3128 O.3       1 ATP        -0.5646
     14 C5'        -0.8811    2.4285    1.6206 C.3       1 ATP         0.2204
     15 C4'        -0.1994    1.3333    2.4288 C.3       1 ATP         0.0965
     16 O4'        -1.1285    0.2356    2.5840 O.3       1 ATP        -0.3907
     17 C3'         1.0324    0.7610    1.7344 C.3       1 ATP         0.0763
     18 O3'         1.9175    0.2377    2.7247 O.3       1 ATP        -0.5884
     19 C2'         0.4468   -0.3802    0.9263 C.3       1 ATP         0.0784
     20 O2'         1.3993   -1.3703    0.5961 O.3       1 ATP        -0.6085
     21 C1'        -0.6159   -0.9100    1.8769 C.3       1 ATP         0.2186
     22 N9         -1.7127   -1.6108    1.2130 N.pl3     1 ATP        -0.1699
     23 C8         -1.6202   -2.3321    0.0482 C.ar      1 ATP         0.4438
     24 N7         -2.7754   -2.8539   -0.3142 N.2       1 ATP        -0.6280
     25 C5         -3.6439   -2.4502    0.6592 C.ar      1 ATP         0.2109
     26 C6         -5.0563   -2.7308    0.7745 C.ar      1 ATP         0.6180
     27 N6         -5.6468   -3.4480   -0.1158 N.2       1 ATP        -0.8319
     28 N1         -5.5549   -2.1241    1.9191 N.pl3     1 ATP        -0.8664
     29 C2         -4.8068   -1.3637    2.8153 C.ar      1 ATP         0.5952
     30 N3         -3.5318   -1.0957    2.7338 N.2       1 ATP        -0.5599
     31 C4         -3.0130   -1.6778    1.6196 C.ar      1 ATP         0.0076
     32 HOG3       -5.3100    2.5900   -2.8823 H         1 ATP         0.4101
     33 H5'1       -1.1767    2.0502    0.6368 H         1 ATP         0.0364
     34 H5'2       -0.2080    3.2814    1.4876 H         1 ATP         0.0364
     35 H4'         0.0403    1.7078    3.4343 H         1 ATP         0.0945
     36 H3'         1.5907    1.4859    1.1353 H         1 ATP         0.0703
     37 HO3'        2.6839   -0.1150    2.2479 H         1 ATP         0.4099
     38 H2'        -0.0017    0.0018    0.0005 H         1 ATP         0.0676
     39 HO2'        2.0953   -0.9375    0.0709 H         1 ATP         0.4291
     40 H1'        -0.1998   -1.6319    2.6178 H         1 ATP         0.0950
     41 H8         -0.6865   -2.4395   -0.4871 H         1 ATP         0.1135
     42 HN62       -6.6394   -3.5426    0.1257 H         1 ATP         0.3588
     43 H2         -5.4125   -0.9811    3.6517 H         1 ATP         0.0302
     44 H44        -6.5442   -2.2475    2.1195 H         1 ATP         0.4215
@<TRIPOS>BOND
     1    1    2 2
     2    1    3 1
     3    1    4 1
     4    1    8 1
     5    4   32 1
     6    5    6 2
     7    5    7 1
     8    5    8 1
     9    5   12 1
    10    9   10 2
    11    9   11 1
    12    9   12 1
    13    9   13 1
    14   13   14 1
    15   14   15 1
    16   14   33 1
    17   14   34 1
    18   15   16 1
    19   15   17 1
    20   15   35 1
    21   16   21 1
    22   17   18 1
    23   17   19 1
    24   17   36 1
    25   18   37 1
    26   19   20 1
    27   19   21 1
    28   19   38 1
    29   20   39 1
    30   21   22 1
    31   21   40 1
    32   22   23 ar
    33   22   31 ar
    34   23   24 ar
    35   23   41 1
    36   24   25 ar
    37   25   26 ar
    38   25   31 ar
    39   26   27 2
    40   26   28 ar
    41   27   42 1
    42   28   29 ar
    43   28   44 1
    44   29   30 ar
    45   29   43 1
    46   30   31 ar
@<TRIPOS>SUBSTRUCTURE
     1 ATP         1 GROUP 0 A     ****
@<TRIPOS>MOLECULE
[[[3,4-dihydroxy-5-(6-imino-1~{H}-purin-9-yl)tetrahydrofuran-2-yl]methoxy-oxido-phosphoryl]oxy-oxido-phosphoryl] hydrogen phosphate
   44    46     1     0     0
SMALL
USER_CHARGES

@<TRIPOS>ATOM
      1 PG          5.2503   -3.5401   -2.6229 P.3       1 ATP         1.5257
      2 O1G         5.4257   -4.8290   -1.8513 O.co2     1 ATP        -0.8737
      3 O2G         6.1566   -3.2004   -3.7851 O.co2     1 ATP        -0.8737
      4 O3G         3.7008   -3.4453   -3.1289 O.3       1 ATP        -0.7971
      5 PB          6.4443   -1.7088   -0.6319 P.3       1 ATP         1.6824
      6 O1B         6.7821   -2.7449    0.4169 O.co2     1 ATP        -0.8925
      7 O2B         7.5148   -1.1161   -1.5209 O.co2     1 ATP        -0.8925
      8 O3B         5.2440   -2.2897   -1.5740 O.3       1 ATP        -0.8047
      9 PA          6.1203    0.6016    1.1881 P.3       1 ATP         1.5908
     10 O1A         7.1690    1.4910    0.5562 O.co2     1 ATP        -0.8932
     11 O2A         6.4034   -0.1283    2.4831 O.co2     1 ATP        -0.8932
     12 O3A         5.6222   -0.4917    0.0807 O.3       1 ATP        -0.8088
     13 O5'         4.7294    1.4427    1.3696 O.3       1 ATP        -0.5646
     14 C5'         4.0922    1.9801    0.2227 C.3       1 ATP         0.2204
     15 C4'         2.5944    2.0310    0.4653 C.3       1 ATP         0.0965
     16 O4'         1.9327    2.5740   -0.6889 O.3       1 ATP        -0.3907
     17 C3'         1.9685    0.6634    0.6767 C.3       1 ATP         0.0763
     18 O3'         2.1425    0.1975    1.9977 O.3       1 ATP        -0.5884
     19 C2'         0.5176    0.9128    0.3099 C.3       1 ATP         0.0784
     20 O2'        -0.2103    1.4454    1.4152 O.3       1 ATP        -0.6085
     21 C1'         0.6219    1.9765   -0.7844 C.3       1 ATP         0.2186
     22 N9          0.4237    1.4496   -2.1357 N.pl3     1 ATP        -0.1699
     23 C8          1.4069    0.9710   -2.9662 C.ar      1 ATP         0.4438
     24 N7          0.9316    0.5623   -4.1260 N.2       1 ATP        -0.6280
     25 C5         -0.4120    0.7884   -4.0344 C.ar      1 ATP         0.2109
     26 C6         -1.4353    0.5283   -5.0204 C.ar      1 ATP         0.6180
     27 N6         -1.1199    0.0176   -6.1586 N.2       1 ATP        -0.8319
     28 N1         -2.6704    0.9095   -4.5147 N.pl3     1 ATP        -0.8664
     29 C2         -2.8863    1.4571   -3.2520 C.ar      1 ATP         0.5952
     30 N3         -1.9805    1.7017   -2.3442 N.2       1 ATP        -0.5599
     31 C4         -0.7561    1.3381   -2.8112 C.ar      1 ATP         0.0076
     32 HOG3        3.4264   -2.6596   -3.6482 H         1 ATP         0.4101
     33 H5'1        4.4843    2.9854    0.0380 H         1 ATP         0.0364
     34 H5'2        4.3191    1.3446   -0.6392 H         1 ATP         0.0364
     35 H4'         2.3752    2.7029    1.3156 H         1 ATP         0.0945
     36 H3'         2.4336   -0.1217   -0.0015 H         1 ATP         0.0703
     37 HO3'        3.0987    0.1465    2.1461 H         1 ATP         0.4099
     38 H2'         0.0316    0.0155   -0.0339 H         1 ATP         0.0676
     39 HO2'       -0.1608    0.7921    2.1351 H         1 ATP         0.4291
     40 H1'        -0.1474    2.7798   -0.6651 H         1 ATP         0.0950
     41 H8          2.4466    0.9468   -2.6694 H         1 ATP         0.1135
     42 HN62       -1.9661   -0.0965   -6.7275 H         1 ATP         0.3588
     43 H2         -3.9481    1.6825   -3.0660 H         1 ATP         0.0302
     44 H44        -3.4814    0.7753   -5.1133 H         1 ATP         0.4215
@<TRIPOS>BOND
     1    1    2 2
     2    1    3 1
     3    1    4 1
     4    1    8 1
     5    4   32 1
     6    5    6 2
     7    5    7 1
     8    5    8 1
     9    5   12 1
    10    9   10 2
    11    9   11 1
    12    9   12 1
    13    9   13 1
    14   13   14 1
    15   14   15 1
    16   14   33 1
    17   14   34 1
    18   15   16 1
    19   15   17 1
    20   15   35 1
    21   16   21 1
    22   17   18 1
    23   17   19 1
    24   17   36 1
    25   18   37 1
    26   19   20 1
    27   19   21 1
    28   19   38 1
    29   20   39 1
    30   21   22 1
    31   21   40 1
    32   22   23 ar
    33   22   31 ar
    34   23   24 ar
    35   23   41 1
    36   24   25 ar
    37   25   26 ar
    38   25   31 ar
    39   26   27 2
    40   26   28 ar
    41   27   42 1
    42   28   29 ar
    43   28   44 1
    44   29   30 ar
    45   29   43 1
    46   30   31 ar
@<TRIPOS>SUBSTRUCTURE
     1 ATP         1 GROUP 0 A     ****
@<TRIPOS>MOLECULE
[[[3,4-dihydroxy-5-(6-imino-1~{H}-purin-9-yl)tetrahydrofuran-2-yl]methoxy-oxido-phosphoryl]oxy-oxido-phosphoryl] hydrogen phosphate
   44    46     1     0     0
SMALL
USER_CHARGES

@<TRIPOS>ATOM
      1 PG         -0.3333    7.9588    6.0896 P.3       1 ATP         1.5257
      2 O1G         0.7942    7.7788    7.0815 O.co2     1 ATP        -0.8737
      3 O2G        -1.7289    8.3104    6.5547 O.co2     1 ATP        -0.8737
      4 O3G         0.1309    9.0526    4.9697 O.3       1 ATP        -0.7971
      5 PB          0.7544    5.9243    4.2400 P.3       1 ATP         1.6824
      6 O1B         1.1591    6.8625    3.1249 O.co2     1 ATP        -0.8925
      7 O2B         1.7831    5.3310    5.1767 O.co2     1 ATP        -0.8925
      8 O3B        -0.4118    6.6412    5.1297 O.3       1 ATP        -0.8047
      9 PA         -1.4709    4.7755    2.6641 P.3       1 ATP         1.5908
     10 O1A        -1.0959    5.3860    1.3310 O.co2     1 ATP        -0.8932
     11 O2A        -2.6068    5.3469    3.4844 O.co2     1 ATP        -0.8932
     12 O3A        -0.1377    4.7127    3.6067 O.3       1 ATP        -0.8088
     13 O5'        -1.7336    3.1724    2.4750 O.3       1 ATP        -0.5646
     14 C5'        -0.8811    2.4285    1.6206 C.3       1 ATP         0.2204
     15 C4'        -0.1994    1.3333    2.4288 C.3       1 ATP         0.0965
     16 O4'        -1.1285    0.2356    2.5840 O.3       1 ATP        -0.3907
     17 C3'         1.0324    0.7610    1.7344 C.3       1 ATP         0.0763
     18 O3'         1.9175    0.2377    2.7247 O.3       1 ATP        -0.5884
     19 C2'         0.4468   -0.3802    0.9263 C.3       1 ATP         0.0784
     20 O2'         1.3993   -1.3703    0.5961 O.3       1 ATP        -0.6085
     21 C1'        -0.6159   -0.9100    1.8769 C.3       1 ATP         0.2186
     22 N9         -1.7127   -1.6108    1.2130 N.pl3     1 ATP        -0.1699
     23 C8         -2.8662   -1.0361    0.7388 C.ar      1 ATP         0.4438
     24 N7         -3.6774   -1.9166    0.1867 N.2       1 ATP        -0.6280
     25 C5         -3.0159   -3.1045    0.3122 C.ar      1 ATP         0.2109
     26 C6         -3.4377   -4.4169   -0.1199 C.ar      1 ATP         0.6180
     27 N6         -4.5720   -4.5691   -0.7080 N.2       1 ATP        -0.8319
     28 N1         -2.4600   -5.3463    0.2071 N.pl3     1 ATP        -0.8664
     29 C2         -1.2595   -5.0554    0.8515 C.ar      1 ATP         0.5952
     30 N3         -0.8555   -3.8803    1.2516 N.2       1 ATP        -0.5599
     31 C4         -1.7946   -2.9457    0.9448 C.ar      1 ATP         0.0076
     32 HOG3        0.9257    8.8582    4.4286 H         1 ATP         0.4101
     33 H5'1       -1.4800    1.9927    0.8146 H         1 ATP         0.0364
     34 H5'2       -0.1367    3.1040    1.1872 H         1 ATP         0.0364
     35 H4'         0.0403    1.7078    3.4343 H         1 ATP         0.0945
     36 H3'         1.5907    1.4859    1.1353 H         1 ATP         0.0703
     37 HO3'        2.6839   -0.1150    2.2479 H         1 ATP         0.4099
     38 H2'        -0.0017    0.0018    0.0005 H         1 ATP         0.0676
     39 HO2'        2.0953   -0.9375    0.0709 H         1 ATP         0.4291
     40 H1'        -0.1998   -1.6319    2.6178 H         1 ATP         0.0950
     41 H8         -3.0558    0.0252    0.8256 H         1 ATP         0.1135
     42 HN62       -4.7047   -5.5592   -0.9421 H         1 ATP         0.3588
     43 H2         -0.6372   -5.9505    1.0077 H         1 ATP         0.0302
     44 H44        -2.6338   -6.3155   -0.0469 H         1 ATP         0.4215
@<TRIPOS>BOND
     1    1    2 2
     2    1    3 1
     3    1    4 1
     4    1    8 1
     5    4   32 1
     6    5    6 2
     7    5    7 1
     8    5    8 1
     9    5   12 1
    10    9   10 2
    11    9   11 1
    12    9   12 1
    13    9   13 1
    14   13   14 1
    15   14   15 1
    16   14   33 1
    17   14   34 1
    18   15   16 1
    19   15   17 1
    20   15   35 1
    21   16   21 1
    22   17   18 1
    23   17   19 1
    24   17   36 1
    25   18   37 1
    26   19   20 1
    27   19   21 1
    28   19   38 1
    29   20   39 1
    30   21   22 1
    31   21   40 1
    32   22   23 ar
    33   22   31 ar
    34   23   24 ar
    35   23   41 1
    36   24   25 ar
    37   25   26 ar
    38   25   31 ar
    39   26   27 2
    40   26   28 ar
    41   27   42 1
    42   28   29 ar
    43   28   44 1
    44   29   30 ar
    45   29   43 1
    46   30   31 ar
@<TRIPOS>SUBSTRUCTURE
     1 ATP         1 GROUP 0 A     ****
@<TRIPOS>MOLECULE
[[[3,4-dihydroxy-5-(6-imino-1~{H}-purin-9-yl)tetrahydrofuran-2-yl]methoxy-oxido-phosphoryl]oxy-oxido-phosphoryl] hydrogen phosphate
   44    46     1     0     0
SMALL
USER_CHARGES

@<TRIPOS>ATOM
      1 PG          8.2376    4.4371   -1.3669 P.3       1 ATP         1.5257
      2 O1G         6.7291    4.5433   -1.3856 O.co2     1 ATP        -0.8737
      3 O2G         9.0305    4.4027   -2.6545 O.co2     1 ATP        -0.8737
      4 O3G         8.8300    5.6322   -0.4251 O.3       1 ATP        -0.7971
      5 PB          8.4345    1.5643   -0.6951 P.3       1 ATP         1.6824
      6 O1B         8.9675    1.2039   -2.0639 O.co2     1 ATP        -0.8925
      7 O2B         8.8747    0.8108    0.5402 O.co2     1 ATP        -0.8925
      8 O3B         8.6689    3.1607   -0.4458 O.3       1 ATP        -0.8047
      9 PA          5.7602    0.3298   -0.9771 P.3       1 ATP         1.5908
     10 O1A         5.8573   -0.6085    0.2063 O.co2     1 ATP        -0.8932
     11 O2A         5.9309   -0.1861   -2.3893 O.co2     1 ATP        -0.8932
     12 O3A         6.8031    1.5675   -0.7530 O.3       1 ATP        -0.8088
     13 O5'         4.3516    1.1575   -0.9026 O.3       1 ATP        -0.5646
     14 C5'         4.0922    1.9801    0.2227 C.3       1 ATP         0.2204
     15 C4'         2.5944    2.0310    0.4653 C.3       1 ATP         0.0965
     16 O4'         1.9327    2.5740   -0.6889 O.3       1 ATP        -0.3907
     17 C3'         1.9685    0.6634    0.6767 C.3       1 ATP         0.0763
     18 O3'         2.1425    0.1975    1.9977 O.3       1 ATP        -0.5884
     19 C2'         0.5176    0.9128    0.3099 C.3       1 ATP         0.0784
     20 O2'        -0.2103    1.4454    1.4152 O.3       1 ATP        -0.6085
     21 C1'         0.6219    1.9765   -0.7844 C.3       1 ATP         0.2186
     22 N9          0.4237    1.4496   -2.1357 N.pl3     1 ATP        -0.1699
     23 C8          1.4069    0.9710   -2.9662 C.ar      1 ATP         0.4438
     24 N7          0.9316    0.5623   -4.1260 N.2       1 ATP        -0.6280
     25 C5         -0.4120    0.7884   -4.0344 C.ar      1 ATP         0.2109
     26 C6         -1.4353    0.5283   -5.0204 C.ar      1 ATP         0.6180
     27 N6         -1.1199    0.0176   -6.1586 N.2       1 ATP        -0.8319
     28 N1         -2.6704    0.9095   -4.5147 N.pl3     1 ATP        -0.8664
     29 C2         -2.8863    1.4571   -3.2520 C.ar      1 ATP         0.5952
     30 N3         -1.9805    1.7017   -2.3442 N.2       1 ATP        -0.5599
     31 C4         -0.7561    1.3381   -2.8112 C.ar      1 ATP         0.0076
     32 HOG3        9.8021    5.6985   -0.3113 H         1 ATP         0.4101
     33 H5'1        4.6069    1.5618    1.0936 H         1 ATP         0.0364
     34 H5'2        4.4824    2.9837    0.0254 H         1 ATP         0.0364
     35 H4'         2.3752    2.7029    1.3156 H         1 ATP         0.0945
     36 H3'         2.4336   -0.1217   -0.0015 H         1 ATP         0.0703
     37 HO3'        3.0987    0.1465    2.1461 H         1 ATP         0.4099
     38 H2'         0.0316    0.0155   -0.0339 H         1 ATP         0.0676
     39 HO2'       -0.1608    0.7921    2.1351 H         1 ATP         0.4291
     40 H1'        -0.1474    2.7798   -0.6651 H         1 ATP         0.0950
     41 H8          2.4466    0.9468   -2.6694 H         1 ATP         0.1135
     42 HN62       -1.9661   -0.0965   -6.7275 H         1 ATP         0.3588
     43 H2         -3.9481    1.6825   -3.0660 H         1 ATP         0.0302
     44 H44        -3.4814    0.7753   -5.1133 H         1 ATP         0.4215
@<TRIPOS>BOND
     1    1    2 2
     2    1    3 1
     3    1    4 1
     4    1    8 1
     5    4   32 1
     6    5    6 2
     7    5    7 1
     8    5    8 1
     9    5   12 1
    10    9   10 2
    11    9   11 1
    12    9   12 1
    13    9   13 1
    14   13   14 1
    15   14   15 1
    16   14   33 1
    17   14   34 1
    18   15   16 1
    19   15   17 1
    20   15   35 1
    21   16   21 1
    22   17   18 1
    23   17   19 1
    24   17   36 1
    25   18   37 1
    26   19   20 1
    27   19   21 1
    28   19   38 1
    29   20   39 1
    30   21   22 1
    31   21   40 1
    32   22   23 ar
    33   22   31 ar
    34   23   24 ar
    35   23   41 1
    36   24   25 ar
    37   25   26 ar
    38   25   31 ar
    39   26   27 2
    40   26   28 ar
    41   27   42 1
    42   28   29 ar
    43   28   44 1
    44   29   30 ar
    45   29   43 1
    46   30   31 ar
@<TRIPOS>SUBSTRUCTURE
     1 ATP         1 GROUP 0 A     ****
@<TRIPOS>MOLECULE
[[[3,4-dihydroxy-5-(6-imino-1~{H}-purin-9-yl)tetrahydrofuran-2-yl]methoxy-oxido-phosphoryl]oxy-oxido-phosphoryl] hydrogen phosphate
   44    46     1     0     0
SMALL
USER_CHARGES

@<TRIPOS>ATOM
      1 PG         10.1375    3.2083   -1.4063 P.3       1 ATP         1.5257
      2 O1G        10.6689    2.7302   -0.0734 O.co2     1 ATP        -0.8737
      3 O2G        10.3328    4.6403   -1.8525 O.co2     1 ATP        -0.8737
      4 O3G        10.7038    2.2192   -2.5754 O.3       1 ATP        -0.7971
      5 PB          7.5261    2.9743   -2.7735 P.3       1 ATP         1.6824
      6 O1B         7.3225    4.4432   -3.0705 O.co2     1 ATP        -0.8925
      7 O2B         7.9522    2.0079   -3.8561 O.co2     1 ATP        -0.8925
      8 O3B         8.5527    2.8328   -1.5119 O.3       1 ATP        -0.8047
      9 PA          5.8979    0.9309   -1.3848 P.3       1 ATP         1.5908
     10 O1A         6.7868    0.7713   -0.1705 O.co2     1 ATP        -0.8932
     11 O2A         5.9018   -0.1050   -2.4878 O.co2     1 ATP        -0.8932
     12 O3A         6.1804    2.3945   -2.0539 O.3       1 ATP        -0.8088
     13 O5'         4.3516    1.1575   -0.9026 O.3       1 ATP        -0.5646
     14 C5'         4.0922    1.9801    0.2227 C.3       1 ATP         0.2204
     15 C4'         2.5944    2.0310    0.4653 C.3       1 ATP         0.0965
     16 O4'         1.9327    2.5740   -0.6889 O.3       1 ATP        -0.3907
     17 C3'         1.9685    0.6634    0.6767 C.3       1 ATP         0.0763
     18 O3'         2.1425    0.1975    1.9977 O.3       1 ATP        -0.5884
     19 C2'         0.5176    0.9128    0.3099 C.3       1 ATP         0.0784
     20 O2'        -0.2103    1.4454    1.4152 O.3       1 ATP        -0.6085
     21 C1'         0.6219    1.9765   -0.7844 C.3       1 ATP         0.2186
     22 N9          0.4237    1.4496   -2.1357 N.pl3     1 ATP        -0.1699
     23 C8          1.4069    0.9710   -2.9662 C.ar      1 ATP         0.4438
     24 N7          0.9316    0.5623   -4.1260 N.2       1 ATP        -0.6280
     25 C5         -0.4120    0.7884   -4.0344 C.ar      1 ATP         0.2109
     26 C6         -1.4353    0.5283   -5.0204 C.ar      1 ATP         0.6180
     27 N6         -1.1199    0.0176   -6.1586 N.2       1 ATP        -0.8319
     28 N1         -2.6704    0.9095   -4.5147 N.pl3     1 ATP        -0.8664
     29 C2         -2.8863    1.4571   -3.2520 C.ar      1 ATP         0.5952
     30 N3         -1.9805    1.7017   -2.3442 N.2       1 ATP        -0.5599
     31 C4         -0.7561    1.3381   -2.8112 C.ar      1 ATP         0.0076
     32 HOG3       10.4458    2.3991   -3.5046 H         1 ATP         0.4101
     33 H5'1        4.6069    1.5618    1.0936 H         1 ATP         0.0364
     34 H5'2        4.4824    2.9837    0.0254 H         1 ATP         0.0364
     35 H4'         2.3752    2.7029    1.3156 H         1 ATP         0.0945
     36 H3'         2.4336   -0.1217   -0.0015 H         1 ATP         0.0703
     37 HO3'        1.7160   -0.6716    2.0397 H         1 ATP         0.4099
     38 H2'         0.0316    0.0155   -0.0339 H         1 ATP         0.0676
     39 HO2'       -0.1608    0.7921    2.1351 H         1 ATP         0.4291
     40 H1'        -0.1474    2.7798   -0.6651 H         1 ATP         0.0950
     41 H8          2.4466    0.9468   -2.6694 H         1 ATP         0.1135
     42 HN62       -1.9661   -0.0965   -6.7275 H         1 ATP         0.3588
     43 H2         -3.9481    1.6825   -3.0660 H         1 ATP         0.0302
     44 H44        -3.4814    0.7753   -5.1133 H         1 ATP         0.4215
@<TRIPOS>BOND
     1    1    2 2
     2    1    3 1
     3    1    4 1
     4    1    8 1
     5    4   32 1
     6    5    6 2
     7    5    7 1
     8    5    8 1
     9    5   12 1
    10    9   10 2
    11    9   11 1
    12    9   12 1
    13    9   13 1
    14   13   14 1
    15   14   15 1
    16   14   33 1
    17   14   34 1
    18   15   16 1
    19   15   17 1
    20   15   35 1
    21   16   21 1
    22   17   18 1
    23   17   19 1
    24   17   36 1
    25   18   37 1
    26   19   20 1
    27   19   21 1
    28   19   38 1
    29   20   39 1
    30   21   22 1
    31   21   40 1
    32   22   23 ar
    33   22   31 ar
    34   23   24 ar
    35   23   41 1
    36   24   25 ar
    37   25   26 ar
    38   25   31 ar
    39   26   27 2
    40   26   28 ar
    41   27   42 1
    42   28   29 ar
    43   28   44 1
    44   29   30 ar
    45   29   43 1
    46   30   31 ar
@<TRIPOS>SUBSTRUCTURE
     1 ATP         1 GROUP 0 A     ****
@<TRIPOS>MOLECULE
[[[3,4-dihydroxy-5-(6-imino-1~{H}-purin-9-yl)tetrahydrofuran-2-yl]methoxy-oxido-phosphoryl]oxy-oxido-phosphoryl] hydrogen phosphate
   44    46     1     0     0
SMALL
USER_CHARGES

@<TRIPOS>ATOM
      1 PG         -4.2915    6.0078   -2.3575 P.3       1 ATP         1.5257
      2 O1G        -5.0434    5.1517   -3.3521 O.co2     1 ATP        -0.8737
      3 O2G        -3.1046    6.8399   -2.7892 O.co2     1 ATP        -0.8737
      4 O3G        -5.3601    6.9826   -1.6001 O.3       1 ATP        -0.7971
      5 PB         -4.7646    4.1198   -0.1315 P.3       1 ATP         1.6824
      6 O1B        -5.7152    4.9841    0.6664 O.co2     1 ATP        -0.8925
      7 O2B        -5.2685    2.9575   -0.9577 O.co2     1 ATP        -0.8925
      8 O3B        -3.8551    5.0841   -1.0847 O.3       1 ATP        -0.8047
      9 PA         -2.5926    4.4187    1.8556 P.3       1 ATP         1.5908
     10 O1A        -3.4218    5.0536    2.9508 O.co2     1 ATP        -0.8932
     11 O2A        -1.6631    5.2564    1.0048 O.co2     1 ATP        -0.8932
     12 O3A        -3.5855    3.5838    0.8621 O.3       1 ATP        -0.8088
     13 O5'        -1.7336    3.1724    2.4750 O.3       1 ATP        -0.5646
     14 C5'        -0.8811    2.4285    1.6206 C.3       1 ATP         0.2204
     15 C4'        -0.1994    1.3333    2.4288 C.3       1 ATP         0.0965
     16 O4'        -1.1285    0.2356    2.5840 O.3       1 ATP        -0.3907
     17 C3'         1.0324    0.7610    1.7344 C.3       1 ATP         0.0763
     18 O3'         1.9175    0.2377    2.7247 O.3       1 ATP        -0.5884
     19 C2'         0.4468   -0.3802    0.9263 C.3       1 ATP         0.0784
     20 O2'         1.3993   -1.3703    0.5961 O.3       1 ATP        -0.6085
     21 C1'        -0.6159   -0.9100    1.8769 C.3       1 ATP         0.2186
     22 N9         -1.7127   -1.6108    1.2130 N.pl3     1 ATP        -0.1699
     23 C8         -1.5982   -2.7455    0.4481 C.ar      1 ATP         0.4438
     24 N7         -2.7593   -3.1533   -0.0249 N.2       1 ATP        -0.6280
     25 C5         -3.6547   -2.2420    0.4573 C.ar      1 ATP         0.2109
     26 C6         -5.0842   -2.1942    0.2543 C.ar      1 ATP         0.6180
     27 N6         -5.6648   -3.0919   -0.4618 N.2       1 ATP        -0.8319
     28 N1         -5.6087   -1.0978    0.9248 N.pl3     1 ATP        -0.8664
     29 C2         -4.8689   -0.1873    1.6760 C.ar      1 ATP         0.5952
     30 N3         -3.5787   -0.2081    1.8745 N.2       1 ATP        -0.5599
     31 C4         -3.0344   -1.2737    1.2284 C.ar      1 ATP         0.0076
     32 HOG3       -5.0242    7.6038   -0.9193 H         1 ATP         0.4101
     33 H5'1       -1.4800    1.9927    0.8146 H         1 ATP         0.0364
     34 H5'2       -0.1367    3.1040    1.1872 H         1 ATP         0.0364
     35 H4'         0.0403    1.7078    3.4343 H         1 ATP         0.0945
     36 H3'         1.5907    1.4859    1.1353 H         1 ATP         0.0703
     37 HO3'        2.1521    0.9800    3.3017 H         1 ATP         0.4099
     38 H2'        -0.0017    0.0018    0.0005 H         1 ATP         0.0676
     39 HO2'        1.7495   -1.7243    1.4324 H         1 ATP         0.4291
     40 H1'        -0.1998   -1.6319    2.6178 H         1 ATP         0.0950
     41 H8         -0.6448   -3.2254    0.2735 H         1 ATP         0.1135
     42 HN62       -6.6723   -2.9015   -0.4966 H         1 ATP         0.3588
     43 H2         -5.4961    0.6026    2.1183 H         1 ATP         0.0302
     44 H44        -6.6130   -0.9504    0.8642 H         1 ATP         0.4215
@<TRIPOS>BOND
     1    1    2 2
     2    1    3 1
     3    1    4 1
     4    1    8 1
     5    4   32 1
     6    5    6 2
     7    5    7 1
     8    5    8 1
     9    5   12 1
    10    9   10 2
    11    9   11 1
    12    9   12 1
    13    9   13 1
    14   13   14 1
    15   14   15 1
    16   14   33 1
    17   14   34 1
    18   15   16 1
    19   15   17 1
    20   15   35 1
    21   16   21 1
    22   17   18 1
    23   17   19 1
    24   17   36 1
    25   18   37 1
    26   19   20 1
    27   19   21 1
    28   19   38 1
    29   20   39 1
    30   21   22 1
    31   21   40 1
    32   22   23 ar
    33   22   31 ar
    34   23   24 ar
    35   23   41 1
    36   24   25 ar
    37   25   26 ar
    38   25   31 ar
    39   26   27 2
    40   26   28 ar
    41   27   42 1
    42   28   29 ar
    43   28   44 1
    44   29   30 ar
    45   29   43 1
    46   30   31 ar
@<TRIPOS>SUBSTRUCTURE
     1 ATP         1 GROUP 0 A     ****
@<TRIPOS>MOLECULE
[[[3,4-dihydroxy-5-(6-imino-1~{H}-purin-9-yl)tetrahydrofuran-2-yl]methoxy-oxido-phosphoryl]oxy-oxido-phosphoryl] hydrogen phosphate
   44    46     1     0     0
SMALL
USER_CHARGES

@<TRIPOS>ATOM
      1 PG          1.2720    6.0546    6.4084 P.3       1 ATP         1.5257
      2 O1G         1.9143    7.0458    5.4637 O.co2     1 ATP        -0.8737
      3 O2G         2.1063    5.2679    7.3947 O.co2     1 ATP        -0.8737
      4 O3G         0.0813    6.8150    7.2271 O.3       1 ATP        -0.7971
      5 PB         -0.6704    3.8529    6.0572 P.3       1 ATP         1.6824
      6 O1B         0.1311    2.7671    6.7399 O.co2     1 ATP        -0.8925
      7 O2B        -1.8455    4.5100    6.7464 O.co2     1 ATP        -0.8925
      8 O3B         0.3542    5.0167    5.5458 O.3       1 ATP        -0.8047
      9 PA         -1.9156    4.0918    3.3837 P.3       1 ATP         1.5908
     10 O1A        -0.9829    5.1484    2.8323 O.co2     1 ATP        -0.8932
     11 O2A        -3.3087    4.4562    3.8486 O.co2     1 ATP        -0.8932
     12 O3A        -1.1581    3.3049    4.5989 O.3       1 ATP        -0.8088
     13 O5'        -2.0401    2.8620    2.3128 O.3       1 ATP        -0.5646
     14 C5'        -0.8811    2.4285    1.6206 C.3       1 ATP         0.2204
     15 C4'        -0.1994    1.3333    2.4288 C.3       1 ATP         0.0965
     16 O4'        -1.1285    0.2356    2.5840 O.3       1 ATP        -0.3907
     17 C3'         1.0324    0.7610    1.7344 C.3       1 ATP         0.0763
     18 O3'         1.9175    0.2377    2.7247 O.3       1 ATP        -0.5884
     19 C2'         0.4468   -0.3802    0.9263 C.3       1 ATP         0.0784
     20 O2'         1.3993   -1.3703    0.5961 O.3       1 ATP        -0.6085
     21 C1'        -0.6159   -0.9100    1.8769 C.3       1 ATP         0.2186
     22 N9         -1.7127   -1.6108    1.2130 N.pl3     1 ATP        -0.1699
     23 C8         -2.8662   -1.0361    0.7388 C.ar      1 ATP         0.4438
     24 N7         -3.6774   -1.9166    0.1867 N.2       1 ATP        -0.6280
     25 C5         -3.0159   -3.1045    0.3122 C.ar      1 ATP         0.2109
     26 C6         -3.4377   -4.4169   -0.1199 C.ar      1 ATP         0.6180
     27 N6         -4.5720   -4.5691   -0.7080 N.2       1 ATP        -0.8319
     28 N1         -2.4600   -5.3463    0.2071 N.pl3     1 ATP        -0.8664
     29 C2         -1.2595   -5.0554    0.8515 C.ar      1 ATP         0.5952
     30 N3         -0.8555   -3.8803    1.2516 N.2       1 ATP        -0.5599
     31 C4         -1.7946   -2.9457    0.9448 C.ar      1 ATP         0.0076
     32 HOG3       -0.4348    6.3015    7.8845 H         1 ATP         0.4101
     33 H5'1       -1.1767    2.0502    0.6368 H         1 ATP         0.0364
     34 H5'2       -0.2080    3.2814    1.4876 H         1 ATP         0.0364
     35 H4'         0.0403    1.7078    3.4343 H         1 ATP         0.0945
     36 H3'         1.5907    1.4859    1.1353 H         1 ATP         0.0703
     37 HO3'        2.6839   -0.1150    2.2479 H         1 ATP         0.4099
     38 H2'        -0.0017    0.0018    0.0005 H         1 ATP         0.0676
     39 HO2'        2.0953   -0.9375    0.0709 H         1 ATP         0.4291
     40 H1'        -0.1998   -1.6319    2.6178 H         1 ATP         0.0950
     41 H8         -3.0558    0.0252    0.8256 H         1 ATP         0.1135
     42 HN62       -4.7047   -5.5592   -0.9421 H         1 ATP         0.3588
     43 H2         -0.6372   -5.9505    1.0077 H         1 ATP         0.0302
     44 H44        -2.6338   -6.3155   -0.0469 H         1 ATP         0.4215
@<TRIPOS>BOND
     1    1    2 2
     2    1    3 1
     3    1    4 1
     4    1    8 1
     5    4   32 1
     6    5    6 2
     7    5    7 1
     8    5    8 1
     9    5   12 1
    10    9   10 2
    11    9   11 1
    12    9   12 1
    13    9   13 1
    14   13   14 1
    15   14   15 1
    16   14   33 1
    17   14   34 1
    18   15   16 1
    19   15   17 1
    20   15   35 1
    21   16   21 1
    22   17   18 1
    23   17   19 1
    24   17   36 1
    25   18   37 1
    26   19   20 1
    27   19   21 1
    28   19   38 1
    29   20   39 1
    30   21   22 1
    31   21   40 1
    32   22   23 ar
    33   22   31 ar
    34   23   24 ar
    35   23   41 1
    36   24   25 ar
    37   25   26 ar
    38   25   31 ar
    39   26   27 2
    40   26   28 ar
    41   27   42 1
    42   28   29 ar
    43   28   44 1
    44   29   30 ar
    45   29   43 1
    46   30   31 ar
@<TRIPOS>SUBSTRUCTURE
     1 ATP         1 GROUP 0 A     ****
@<TRIPOS>MOLECULE
[[[3,4-dihydroxy-5-(6-imino-1~{H}-purin-9-yl)tetrahydrofuran-2-yl]methoxy-oxido-phosphoryl]oxy-oxido-phosphoryl] hydrogen phosphate
   44    46     1     0     0
SMALL
USER_CHARGES

@<TRIPOS>ATOM
      1 PG          8.7071    6.4628    1.2428 P.3       1 ATP         1.5257
      2 O1G         7.8002    7.6649    1.3845 O.co2     1 ATP        -0.8737
      3 O2G         9.6940    6.3640    0.1009 O.co2     1 ATP        -0.8737
      4 O3G         9.5154    6.2546    2.6461 O.3       1 ATP        -0.7971
      5 PB          8.2613    3.5406    1.3162 P.3       1 ATP         1.6824
      6 O1B         8.9373    3.2013    0.0065 O.co2     1 ATP        -0.8925
      7 O2B         8.9383    3.2675    2.6409 O.co2     1 ATP        -0.8925
      8 O3B         7.8002    5.1063    1.2770 O.3       1 ATP        -0.8047
      9 PA          6.3565    1.2771    1.3734 P.3       1 ATP         1.5908
     10 O1A         6.8004    0.6872    2.6945 O.co2     1 ATP        -0.8932
     11 O2A         6.7697    0.6406    0.0643 O.co2     1 ATP        -0.8932
     12 O3A         6.7801    2.8546    1.3338 O.3       1 ATP        -0.8088
     13 O5'         4.7294    1.4427    1.3696 O.3       1 ATP        -0.5646
     14 C5'         4.0922    1.9801    0.2227 C.3       1 ATP         0.2204
     15 C4'         2.5944    2.0310    0.4653 C.3       1 ATP         0.0965
     16 O4'         1.9327    2.5740   -0.6889 O.3       1 ATP        -0.3907
     17 C3'         1.9685    0.6634    0.6767 C.3       1 ATP         0.0763
     18 O3'         2.1425    0.1975    1.9977 O.3       1 ATP        -0.5884
     19 C2'         0.5176    0.9128    0.3099 C.3       1 ATP         0.0784
     20 O2'        -0.2103    1.4454    1.4152 O.3       1 ATP        -0.6085
     21 C1'         0.6219    1.9765   -0.7844 C.3       1 ATP         0.2186
     22 N9          0.4237    1.4496   -2.1357 N.pl3     1 ATP        -0.1699
     23 C8          1.4069    0.9710   -2.9662 C.ar      1 ATP         0.4438
     24 N7          0.9316    0.5623   -4.1260 N.2       1 ATP        -0.6280
     25 C5         -0.4120    0.7884   -4.0344 C.ar      1 ATP         0.2109
     26 C6         -1.4353    0.5283   -5.0204 C.ar      1 ATP         0.6180
     27 N6         -1.1199    0.0176   -6.1586 N.2       1 ATP        -0.8319
     28 N1         -2.6704    0.9095   -4.5147 N.pl3     1 ATP        -0.8664
     29 C2         -2.8863    1.4571   -3.2520 C.ar      1 ATP         0.5952
     30 N3         -1.9805    1.7017   -2.3442 N.2       1 ATP        -0.5599
     31 C4         -0.7561    1.3381   -2.8112 C.ar      1 ATP         0.0076
     32 HOG3       10.1490    5.5088    2.7137 H         1 ATP         0.4101
     33 H5'1        4.4843    2.9854    0.0380 H         1 ATP         0.0364
     34 H5'2        4.3191    1.3446   -0.6392 H         1 ATP         0.0364
     35 H4'         2.3752    2.7029    1.3156 H         1 ATP         0.0945
     36 H3'         2.4336   -0.1217   -0.0015 H         1 ATP         0.0703
     37 HO3'        3.0987    0.1465    2.1461 H         1 ATP         0.4099
     38 H2'         0.0316    0.0155   -0.0339 H         1 ATP         0.0676
     39 HO2'       -0.1608    0.7921    2.1351 H         1 ATP         0.4291
     40 H1'        -0.1474    2.7798   -0.6651 H         1 ATP         0.0950
     41 H8          2.4466    0.9468   -2.6694 H         1 ATP         0.1135
     42 HN62       -1.9661   -0.0965   -6.7275 H         1 ATP         0.3588
     43 H2         -3.9481    1.6825   -3.0660 H         1 ATP         0.0302
     44 H44        -3.4814    0.7753   -5.1133 H         1 ATP         0.4215
@<TRIPOS>BOND
     1    1    2 2
     2    1    3 1
     3    1    4 1
     4    1    8 1
     5    4   32 1
     6    5    6 2
     7    5    7 1
     8    5    8 1
     9    5   12 1
    10    9   10 2
    11    9   11 1
    12    9   12 1
    13    9   13 1
    14   13   14 1
    15   14   15 1
    16   14   33 1
    17   14   34 1
    18   15   16 1
    19   15   17 1
    20   15   35 1
    21   16   21 1
    22   17   18 1
    23   17   19 1
    24   17   36 1
    25   18   37 1
    26   19   20 1
    27   19   21 1
    28   19   38 1
    29   20   39 1
    30   21   22 1
    31   21   40 1
    32   22   23 ar
    33   22   31 ar
    34   23   24 ar
    35   23   41 1
    36   24   25 ar
    37   25   26 ar
    38   25   31 ar
    39   26   27 2
    40   26   28 ar
    41   27   42 1
    42   28   29 ar
    43   28   44 1
    44   29   30 ar
    45   29   43 1
    46   30   31 ar
@<TRIPOS>SUBSTRUCTURE
     1 ATP         1 GROUP 0 A     ****
@<TRIPOS>MOLECULE
[[[3,4-dihydroxy-5-(6-imino-1~{H}-purin-9-yl)tetrahydrofuran-2-yl]methoxy-oxido-phosphoryl]oxy-oxido-phosphoryl] hydrogen phosphate
   44    46     1     0     0
SMALL
USER_CHARGES

@<TRIPOS>ATOM
      1 PG         -4.2905    5.6884   -2.6755 P.3       1 ATP         1.5257
      2 O1G        -4.4432    4.4823   -3.5752 O.co2     1 ATP        -0.8737
      3 O2G        -3.5732    6.9304   -3.1556 O.co2     1 ATP        -0.8737
      4 O3G        -5.7683    6.1206   -2.1321 O.3       1 ATP        -0.7971
      5 PB         -3.3926    6.0601    0.1172 P.3       1 ATP         1.6824
      6 O1B        -2.3518    7.1254   -0.1466 O.co2     1 ATP        -0.8925
      7 O2B        -4.7370    6.4096    0.7155 O.co2     1 ATP        -0.8925
      8 O3B        -3.6356    5.2140   -1.2578 O.3       1 ATP        -0.8047
      9 PA         -3.3161    3.4234    1.4576 P.3       1 ATP         1.5908
     10 O1A        -3.5064    2.5741    0.2195 O.co2     1 ATP        -0.8932
     11 O2A        -4.4616    3.6587    2.4178 O.co2     1 ATP        -0.8932
     12 O3A        -2.7135    4.8751    1.0113 O.3       1 ATP        -0.8088
     13 O5'        -2.0401    2.8620    2.3128 O.3       1 ATP        -0.5646
     14 C5'        -0.8811    2.4285    1.6206 C.3       1 ATP         0.2204
     15 C4'        -0.1994    1.3333    2.4288 C.3       1 ATP         0.0965
     16 O4'        -1.1285    0.2356    2.5840 O.3       1 ATP        -0.3907
     17 C3'         1.0324    0.7610    1.7344 C.3       1 ATP         0.0763
     18 O3'         1.9175    0.2377    2.7247 O.3       1 ATP        -0.5884
     19 C2'         0.4468   -0.3802    0.9263 C.3       1 ATP         0.0784
     20 O2'         1.3993   -1.3703    0.5961 O.3       1 ATP        -0.6085
     21 C1'        -0.6159   -0.9100    1.8769 C.3       1 ATP         0.2186
     22 N9         -1.7127   -1.6108    1.2130 N.pl3     1 ATP        -0.1699
     23 C8         -1.5982   -2.7455    0.4481 C.ar      1 ATP         0.4438
     24 N7         -2.7593   -3.1533   -0.0249 N.2       1 ATP        -0.6280
     25 C5         -3.6547   -2.2420    0.4573 C.ar      1 ATP         0.2109
     26 C6         -5.0842   -2.1942    0.2543 C.ar      1 ATP         0.6180
     27 N6         -5.6648   -3.0919   -0.4618 N.2       1 ATP        -0.8319
     28 N1         -5.6087   -1.0978    0.9248 N.pl3     1 ATP        -0.8664
     29 C2         -4.8689   -0.1873    1.6760 C.ar      1 ATP         0.5952
     30 N3         -3.5787   -0.2081    1.8745 N.2       1 ATP        -0.5599
     31 C4         -3.0344   -1.2737    1.2284 C.ar      1 ATP         0.0076
     32 HOG3       -5.8374    6.8932   -1.5317 H         1 ATP         0.4101
     33 H5'1       -1.1767    2.0502    0.6368 H         1 ATP         0.0364
     34 H5'2       -0.2080    3.2814    1.4876 H         1 ATP         0.0364
     35 H4'         0.0403    1.7078    3.4343 H         1 ATP         0.0945
     36 H3'         1.5907    1.4859    1.1353 H         1 ATP         0.0703
     37 HO3'        2.6839   -0.1150    2.2479 H         1 ATP         0.4099
     38 H2'        -0.0017    0.0018    0.0005 H         1 ATP         0.0676
     39 HO2'        2.0953   -0.9375    0.0709 H         1 ATP         0.4291
     40 H1'        -0.1998   -1.6319    2.6178 H         1 ATP         0.0950
     41 H8         -0.6448   -3.2254    0.2735 H         1 ATP         0.1135
     42 HN62       -6.6723   -2.9015   -0.4966 H         1 ATP         0.3588
     43 H2         -5.4961    0.6026    2.1183 H         1 ATP         0.0302
     44 H44        -6.6130   -0.9504    0.8642 H         1 ATP         0.4215
@<TRIPOS>BOND
     1    1    2 2
     2    1    3 1
     3    1    4 1
     4    1    8 1
     5    4   32 1
     6    5    6 2
     7    5    7 1
     8    5    8 1
     9    5   12 1
    10    9   10 2
    11    9   11 1
    12    9   12 1
    13    9   13 1
    14   13   14 1
    15   14   15 1
    16   14   33 1
    17   14   34 1
    18   15   16 1
    19   15   17 1
    20   15   35 1
    21   16   21 1
    22   17   18 1
    23   17   19 1
    24   17   36 1
    25   18   37 1
    26   19   20 1
    27   19   21 1
    28   19   38 1
    29   20   39 1
    30   21   22 1
    31   21   40 1
    32   22   23 ar
    33   22   31 ar
    34   23   24 ar
    35   23   41 1
    36   24   25 ar
    37   25   26 ar
    38   25   31 ar
    39   26   27 2
    40   26   28 ar
    41   27   42 1
    42   28   29 ar
    43   28   44 1
    44   29   30 ar
    45   29   43 1
    46   30   31 ar
@<TRIPOS>SUBSTRUCTURE
     1 ATP         1 GROUP 0 A     ****
@<TRIPOS>MOLECULE
[[[3,4-dihydroxy-5-(6-imino-1~{H}-purin-9-yl)tetrahydrofuran-2-yl]methoxy-oxido-phosphoryl]oxy-oxido-phosphoryl] hydrogen phosphate
   44    46     1     0     0
SMALL
USER_CHARGES

@<TRIPOS>ATOM
      1 PG         -3.0189    6.4594    6.2696 P.3       1 ATP         1.5257
      2 O1G        -2.8583    5.5223    7.4458 O.co2     1 ATP        -0.8737
      3 O2G        -4.3859    6.9510    5.8485 O.co2     1 ATP        -0.8737
      4 O3G        -2.0513    7.7539    6.5017 O.3       1 ATP        -0.7971
      5 PB         -1.9924    6.4606    3.4965 P.3       1 ATP         1.6824
      6 O1B        -3.3189    6.6354    2.7913 O.co2     1 ATP        -0.8925
      7 O2B        -1.0243    7.6135    3.6414 O.co2     1 ATP        -0.8925
      8 O3B        -2.2649    5.8174    4.9722 O.3       1 ATP        -0.8047
      9 PA         -0.5790    5.0299    1.3261 P.3       1 ATP         1.5908
     10 O1A         0.5634    6.0092    1.1642 O.co2     1 ATP        -0.8932
     11 O2A        -1.7210    5.0027    0.3337 O.co2     1 ATP        -0.8932
     12 O3A        -1.2057    5.1972    2.8258 O.3       1 ATP        -0.8088
     13 O5'         0.0178    3.5131    1.4595 O.3       1 ATP        -0.5646
     14 C5'        -0.8811    2.4285    1.6206 C.3       1 ATP         0.2204
     15 C4'        -0.1994    1.3333    2.4288 C.3       1 ATP         0.0965
     16 O4'        -1.1285    0.2356    2.5840 O.3       1 ATP        -0.3907
     17 C3'         1.0324    0.7610    1.7344 C.3       1 ATP         0.0763
     18 O3'         1.9175    0.2377    2.7247 O.3       1 ATP        -0.5884
     19 C2'         0.4468   -0.3802    0.9263 C.3       1 ATP         0.0784
     20 O2'         1.3993   -1.3703    0.5961 O.3       1 ATP        -0.6085
     21 C1'        -0.6159   -0.9100    1.8769 C.3       1 ATP         0.2186
     22 N9         -1.7127   -1.6108    1.2130 N.pl3     1 ATP        -0.1699
     23 C8         -2.0868   -2.9137    1.4327 C.ar      1 ATP         0.4438
     24 N7         -3.1125   -3.2756    0.6878 N.2       1 ATP        -0.6280
     25 C5         -3.4079   -2.1580   -0.0391 C.ar      1 ATP         0.2109
     26 C6         -4.4483   -1.9775   -1.0249 C.ar      1 ATP         0.6180
     27 N6         -5.2418   -2.9492   -1.3113 N.2       1 ATP        -0.8319
     28 N1         -4.3937   -0.6823   -1.5211 N.pl3     1 ATP        -0.8664
     29 C2         -3.4770    0.2901   -1.1271 C.ar      1 ATP         0.5952
     30 N3         -2.5289    0.1525   -0.2402 N.2       1 ATP        -0.5599
     31 C4         -2.5564   -1.1096    0.2655 C.ar      1 ATP         0.0076
     32 HOG3       -2.0425    8.4586    5.8194 H         1 ATP         0.4101
     33 H5'1       -1.7771    2.7849    2.1387 H         1 ATP         0.0364
     34 H5'2       -1.1654    2.0541    0.6320 H         1 ATP         0.0364
     35 H4'         0.0403    1.7078    3.4343 H         1 ATP         0.0945
     36 H3'         1.5907    1.4859    1.1353 H         1 ATP         0.0703
     37 HO3'        2.1521    0.9800    3.3017 H         1 ATP         0.4099
     38 H2'        -0.0017    0.0018    0.0005 H         1 ATP         0.0676
     39 HO2'        0.9369   -2.0558    0.0825 H         1 ATP         0.4291
     40 H1'        -0.1998   -1.6319    2.6178 H         1 ATP         0.0950
     41 H8         -1.5740   -3.5449    2.1457 H         1 ATP         0.1135
     42 HN62       -5.9117   -2.6433   -2.0256 H         1 ATP         0.3588
     43 H2         -3.6225    1.2454   -1.6553 H         1 ATP         0.0302
     44 H44        -5.0794   -0.4231   -2.2258 H         1 ATP         0.4215
@<TRIPOS>BOND
     1    1    2 2
     2    1    3 1
     3    1    4 1
     4    1    8 1
     5    4   32 1
     6    5    6 2
     7    5    7 1
     8    5    8 1
     9    5   12 1
    10    9   10 2
    11    9   11 1
    12    9   12 1
    13    9   13 1
    14   13   14 1
    15   14   15 1
    16   14   33 1
    17   14   34 1
    18   15   16 1
    19   15   17 1
    20   15   35 1
    21   16   21 1
    22   17   18 1
    23   17   19 1
    24   17   36 1
    25   18   37 1
    26   19   20 1
    27   19   21 1
    28   19   38 1
    29   20   39 1
    30   21   22 1
    31   21   40 1
    32   22   23 ar
    33   22   31 ar
    34   23   24 ar
    35   23   41 1
    36   24   25 ar
    37   25   26 ar
    38   25   31 ar
    39   26   27 2
    40   26   28 ar
    41   27   42 1
    42   28   29 ar
    43   28   44 1
    44   29   30 ar
    45   29   43 1
    46   30   31 ar
@<TRIPOS>SUBSTRUCTURE
     1 ATP         1 GROUP 0 A     ****
@<TRIPOS>MOLECULE
[[[3,4-dihydroxy-5-(6-imino-1~{H}-purin-9-yl)tetrahydrofuran-2-yl]methoxy-oxido-phosphoryl]oxy-oxido-phosphoryl] hydrogen phosphate
   44    46     1     0     0
SMALL
USER_CHARGES

@<TRIPOS>ATOM
      1 PG          0.1877    7.6641    4.4036 P.3       1 ATP         1.5257
      2 O1G        -0.6556    8.3572    5.4504 O.co2     1 ATP        -0.8737
      3 O2G        -0.0650    7.8876    2.9291 O.co2     1 ATP        -0.8737
      4 O3G         1.7599    7.9772    4.7134 O.3       1 ATP        -0.7971
      5 PB         -1.0266    4.9765    4.6178 P.3       1 ATP         1.6824
      6 O1B        -0.4590    3.5905    4.8282 O.co2     1 ATP        -0.8925
      7 O2B        -2.1841    5.4834    5.4489 O.co2     1 ATP        -0.8925
      8 O3B         0.1922    6.0596    4.7022 O.3       1 ATP        -0.8047
      9 PA         -2.5400    4.4095    2.1393 P.3       1 ATP         1.5908
     10 O1A        -2.3768    4.8335    0.6957 O.co2     1 ATP        -0.8932
     11 O2A        -3.8713    4.5576    2.8432 O.co2     1 ATP        -0.8932
     12 O3A        -1.3978    5.1558    3.0383 O.3       1 ATP        -0.8088
     13 O5'        -2.0401    2.8620    2.3128 O.3       1 ATP        -0.5646
     14 C5'        -0.8811    2.4285    1.6206 C.3       1 ATP         0.2204
     15 C4'        -0.1994    1.3333    2.4288 C.3       1 ATP         0.0965
     16 O4'        -1.1285    0.2356    2.5840 O.3       1 ATP        -0.3907
     17 C3'         1.0324    0.7610    1.7344 C.3       1 ATP         0.0763
     18 O3'         1.9175    0.2377    2.7247 O.3       1 ATP        -0.5884
     19 C2'         0.4468   -0.3802    0.9263 C.3       1 ATP         0.0784
     20 O2'         1.3993   -1.3703    0.5961 O.3       1 ATP        -0.6085
     21 C1'        -0.6159   -0.9100    1.8769 C.3       1 ATP         0.2186
     22 N9         -1.7127   -1.6108    1.2130 N.pl3     1 ATP        -0.1699
     23 C8         -1.7690   -2.9583    0.9549 C.ar      1 ATP         0.4438
     24 N7         -2.8827   -3.3076    0.3418 N.2       1 ATP        -0.6280
     25 C5         -3.5683   -2.1351    0.2017 C.ar      1 ATP         0.2109
     26 C6         -4.8617   -1.9185   -0.4044 C.ar      1 ATP         0.6180
     27 N6         -5.5166   -2.9094   -0.8993 N.2       1 ATP        -0.8319
     28 N1         -5.1837   -0.5701   -0.3344 N.pl3     1 ATP        -0.8664
     29 C2         -4.3821    0.4180    0.2330 C.ar      1 ATP         0.5952
     30 N3         -3.2117    0.2488    0.7860 N.2       1 ATP        -0.5599
     31 C4         -2.8672   -1.0657    0.7327 C.ar      1 ATP         0.0076
     32 HOG3        2.1310    7.6943    5.5763 H         1 ATP         0.4101
     33 H5'1       -1.1767    2.0502    0.6368 H         1 ATP         0.0364
     34 H5'2       -0.2080    3.2814    1.4876 H         1 ATP         0.0364
     35 H4'         0.0403    1.7078    3.4343 H         1 ATP         0.0945
     36 H3'         1.5907    1.4859    1.1353 H         1 ATP         0.0703
     37 HO3'        2.6839   -0.1150    2.2479 H         1 ATP         0.4099
     38 H2'        -0.0017    0.0018    0.0005 H         1 ATP         0.0676
     39 HO2'        0.9369   -2.0558    0.0825 H         1 ATP         0.4291
     40 H1'        -0.1998   -1.6319    2.6178 H         1 ATP         0.0950
     41 H8         -0.9697   -3.6300    1.2371 H         1 ATP         0.1135
     42 HN62       -6.4060   -2.5723   -1.2840 H         1 ATP         0.3588
     43 H2         -4.8409    1.4176    0.1757 H         1 ATP         0.0302
     44 H44        -6.0768   -0.2826   -0.7263 H         1 ATP         0.4215
@<TRIPOS>BOND
     1    1    2 2
     2    1    3 1
     3    1    4 1
     4    1    8 1
     5    4   32 1
     6    5    6 2
     7    5    7 1
     8    5    8 1
     9    5   12 1
    10    9   10 2
    11    9   11 1
    12    9   12 1
    13    9   13 1
    14   13   14 1
    15   14   15 1
    16   14   33 1
    17   14   34 1
    18   15   16 1
    19   15   17 1
    20   15   35 1
    21   16   21 1
    22   17   18 1
    23   17   19 1
    24   17   36 1
    25   18   37 1
    26   19   20 1
    27   19   21 1
    28   19   38 1
    29   20   39 1
    30   21   22 1
    31   21   40 1
    32   22   23 ar
    33   22   31 ar
    34   23   24 ar
    35   23   41 1
    36   24   25 ar
    37   25   26 ar
    38   25   31 ar
    39   26   27 2
    40   26   28 ar
    41   27   42 1
    42   28   29 ar
    43   28   44 1
    44   29   30 ar
    45   29   43 1
    46   30   31 ar
@<TRIPOS>SUBSTRUCTURE
     1 ATP         1 GROUP 0 A     ****
@<TRIPOS>MOLECULE
[[[3,4-dihydroxy-5-(6-imino-1~{H}-purin-9-yl)tetrahydrofuran-2-yl]methoxy-oxido-phosphoryl]oxy-oxido-phosphoryl] hydrogen phosphate
   44    46     1     0     0
SMALL
USER_CHARGES

@<TRIPOS>ATOM
      1 PG          9.1207    4.7317   -3.9111 P.3       1 ATP         1.5257
      2 O1G         9.1183    6.2326   -3.7248 O.co2     1 ATP        -0.8737
      3 O2G         9.0751    4.1200   -5.2937 O.co2     1 ATP        -0.8737
      4 O3G        10.4025    4.1119   -3.1120 O.3       1 ATP        -0.7971
      5 PB          7.5743    2.5160   -2.7100 P.3       1 ATP         1.6824
      6 O1B         7.1131    1.8714   -3.9981 O.co2     1 ATP        -0.8925
      7 O2B         8.6921    1.9132   -1.8887 O.co2     1 ATP        -0.8925
      8 O3B         7.9281    4.0822   -3.0058 O.3       1 ATP        -0.8047
      9 PA          6.1593    3.5241   -0.3148 P.3       1 ATP         1.5908
     10 O1A         6.4223    4.9968   -0.5434 O.co2     1 ATP        -0.8932
     11 O2A         6.9473    2.7489    0.7186 O.co2     1 ATP        -0.8932
     12 O3A         6.2776    2.7414   -1.7442 O.3       1 ATP        -0.8088
     13 O5'         4.5670    3.2937   -0.0211 O.3       1 ATP        -0.5646
     14 C5'         4.0922    1.9801    0.2227 C.3       1 ATP         0.2204
     15 C4'         2.5944    2.0310    0.4653 C.3       1 ATP         0.0965
     16 O4'         1.9327    2.5740   -0.6889 O.3       1 ATP        -0.3907
     17 C3'         1.9685    0.6634    0.6767 C.3       1 ATP         0.0763
     18 O3'         2.1425    0.1975    1.9977 O.3       1 ATP        -0.5884
     19 C2'         0.5176    0.9128    0.3099 C.3       1 ATP         0.0784
     20 O2'        -0.2103    1.4454    1.4152 O.3       1 ATP        -0.6085
     21 C1'         0.6219    1.9765   -0.7844 C.3       1 ATP         0.2186
     22 N9          0.4237    1.4496   -2.1357 N.pl3     1 ATP        -0.1699
     23 C8         -0.7779    1.3483   -2.7928 C.ar      1 ATP         0.4438
     24 N7         -0.6499    0.8341   -3.9999 N.2       1 ATP        -0.6280
     25 C5          0.6893    0.5965   -4.1212 C.ar      1 ATP         0.2109
     26 C6          1.4031    0.0342   -5.2443 C.ar      1 ATP         0.6180
     27 N6          0.7649   -0.3130   -6.3063 N.2       1 ATP        -0.8319
     28 N1          2.7566   -0.0326   -4.9437 N.pl3     1 ATP        -0.8664
     29 C2          3.3337    0.3796   -3.7446 C.ar      1 ATP         0.5952
     30 N3          2.7120    0.8899   -2.7163 N.2       1 ATP        -0.5599
     31 C4          1.3803    0.9684   -2.9805 C.ar      1 ATP         0.0076
     32 HOG3       10.5436    3.1414   -3.1370 H         1 ATP         0.4101
     33 H5'1        4.3179    1.3548   -0.6470 H         1 ATP         0.0364
     34 H5'2        4.6083    1.5737    1.0983 H         1 ATP         0.0364
     35 H4'         2.3752    2.7029    1.3156 H         1 ATP         0.0945
     36 H3'         2.4336   -0.1217   -0.0015 H         1 ATP         0.0703
     37 HO3'        1.7160   -0.6716    2.0397 H         1 ATP         0.4099
     38 H2'         0.0316    0.0155   -0.0339 H         1 ATP         0.0676
     39 HO2'       -0.1608    0.7921    2.1351 H         1 ATP         0.4291
     40 H1'        -0.1474    2.7798   -0.6651 H         1 ATP         0.0950
     41 H8         -1.7076    1.6648   -2.3398 H         1 ATP         0.1135
     42 HN62        1.4266   -0.6890   -6.9943 H         1 ATP         0.3588
     43 H2          4.4251    0.2326   -3.7294 H         1 ATP         0.0302
     44 H44         3.3750   -0.4100   -5.6572 H         1 ATP         0.4215
@<TRIPOS>BOND
     1    1    2 2
     2    1    3 1
     3    1    4 1
     4    1    8 1
     5    4   32 1
     6    5    6 2
     7    5    7 1
     8    5    8 1
     9    5   12 1
    10    9   10 2
    11    9   11 1
    12    9   12 1
    13    9   13 1
    14   13   14 1
    15   14   15 1
    16   14   33 1
    17   14   34 1
    18   15   16 1
    19   15   17 1
    20   15   35 1
    21   16   21 1
    22   17   18 1
    23   17   19 1
    24   17   36 1
    25   18   37 1
    26   19   20 1
    27   19   21 1
    28   19   38 1
    29   20   39 1
    30   21   22 1
    31   21   40 1
    32   22   23 ar
    33   22   31 ar
    34   23   24 ar
    35   23   41 1
    36   24   25 ar
    37   25   26 ar
    38   25   31 ar
    39   26   27 2
    40   26   28 ar
    41   27   42 1
    42   28   29 ar
    43   28   44 1
    44   29   30 ar
    45   29   43 1
    46   30   31 ar
@<TRIPOS>SUBSTRUCTURE
     1 ATP         1 GROUP 0 A     ****
@<TRIPOS>MOLECULE
[[[3,4-dihydroxy-5-(6-imino-1~{H}-purin-9-yl)tetrahydrofuran-2-yl]methoxy-oxido-phosphoryl]oxy-oxido-phosphoryl] hydrogen phosphate
   44    46     1     0     0
SMALL
USER_CHARGES

@<TRIPOS>ATOM
      1 PG          9.2154   -1.3597    1.9158 P.3       1 ATP         1.5257
      2 O1G         9.9973   -0.1053    2.2359 O.co2     1 ATP        -0.8737
      3 O2G         9.8297   -2.4696    1.0921 O.co2     1 ATP        -0.8737
      4 O3G         8.6622   -1.9968    3.3137 O.3       1 ATP        -0.7971
      5 PB          6.5002   -1.8678    0.8609 P.3       1 ATP         1.6824
      6 O1B         6.8944   -2.7855   -0.2748 O.co2     1 ATP        -0.8925
      7 O2B         5.8895   -2.4130    2.1326 O.co2     1 ATP        -0.8925
      8 O3B         7.7844   -0.9391    1.2532 O.3       1 ATP        -0.8047
      9 PA          5.7602    0.3298   -0.9771 P.3       1 ATP         1.5908
     10 O1A         5.8078   -0.4706   -2.2606 O.co2     1 ATP        -0.8932
     11 O2A         6.8838    1.2758   -0.6133 O.co2     1 ATP        -0.8932
     12 O3A         5.5274   -0.6960    0.2732 O.3       1 ATP        -0.8088
     13 O5'         4.3516    1.1575   -0.9026 O.3       1 ATP        -0.5646
     14 C5'         4.0922    1.9801    0.2227 C.3       1 ATP         0.2204
     15 C4'         2.5944    2.0310    0.4653 C.3       1 ATP         0.0965
     16 O4'         1.9327    2.5740   -0.6889 O.3       1 ATP        -0.3907
     17 C3'         1.9685    0.6634    0.6767 C.3       1 ATP         0.0763
     18 O3'         2.1425    0.1975    1.9977 O.3       1 ATP        -0.5884
     19 C2'         0.5176    0.9128    0.3099 C.3       1 ATP         0.0784
     20 O2'        -0.2103    1.4454    1.4152 O.3       1 ATP        -0.6085
     21 C1'         0.6219    1.9765   -0.7844 C.3       1 ATP         0.2186
     22 N9          0.4237    1.4496   -2.1357 N.pl3     1 ATP        -0.1699
     23 C8          1.4069    0.9710   -2.9662 C.ar      1 ATP         0.4438
     24 N7          0.9316    0.5623   -4.1260 N.2       1 ATP        -0.6280
     25 C5         -0.4120    0.7884   -4.0344 C.ar      1 ATP         0.2109
     26 C6         -1.4353    0.5283   -5.0204 C.ar      1 ATP         0.6180
     27 N6         -1.1199    0.0176   -6.1586 N.2       1 ATP        -0.8319
     28 N1         -2.6704    0.9095   -4.5147 N.pl3     1 ATP        -0.8664
     29 C2         -2.8863    1.4571   -3.2520 C.ar      1 ATP         0.5952
     30 N3         -1.9805    1.7017   -2.3442 N.2       1 ATP        -0.5599
     31 C4         -0.7561    1.3381   -2.8112 C.ar      1 ATP         0.0076
     32 HOG3        8.1316   -2.8209    3.2735 H         1 ATP         0.4101
     33 H5'1        4.6069    1.5618    1.0936 H         1 ATP         0.0364
     34 H5'2        4.4824    2.9837    0.0254 H         1 ATP         0.0364
     35 H4'         2.3752    2.7029    1.3156 H         1 ATP         0.0945
     36 H3'         2.4336   -0.1217   -0.0015 H         1 ATP         0.0703
     37 HO3'        1.7160   -0.6716    2.0397 H         1 ATP         0.4099
     38 H2'         0.0316    0.0155   -0.0339 H         1 ATP         0.0676
     39 HO2'       -0.1608    0.7921    2.1351 H         1 ATP         0.4291
     40 H1'        -0.1474    2.7798   -0.6651 H         1 ATP         0.0950
     41 H8          2.4466    0.9468   -2.6694 H         1 ATP         0.1135
     42 HN62       -1.9661   -0.0965   -6.7275 H         1 ATP         0.3588
     43 H2         -3.9481    1.6825   -3.0660 H         1 ATP         0.0302
     44 H44        -3.4814    0.7753   -5.1133 H         1 ATP         0.4215
@<TRIPOS>BOND
     1    1    2 2
     2    1    3 1
     3    1    4 1
     4    1    8 1
     5    4   32 1
     6    5    6 2
     7    5    7 1
     8    5    8 1
     9    5   12 1
    10    9   10 2
    11    9   11 1
    12    9   12 1
    13    9   13 1
    14   13   14 1
    15   14   15 1
    16   14   33 1
    17   14   34 1
    18   15   16 1
    19   15   17 1
    20   15   35 1
    21   16   21 1
    22   17   18 1
    23   17   19 1
    24   17   36 1
    25   18   37 1
    26   19   20 1
    27   19   21 1
    28   19   38 1
    29   20   39 1
    30   21   22 1
    31   21   40 1
    32   22   23 ar
    33   22   31 ar
    34   23   24 ar
    35   23   41 1
    36   24   25 ar
    37   25   26 ar
    38   25   31 ar
    39   26   27 2
    40   26   28 ar
    41   27   42 1
    42   28   29 ar
    43   28   44 1
    44   29   30 ar
    45   29   43 1
    46   30   31 ar
@<TRIPOS>SUBSTRUCTURE
     1 ATP         1 GROUP 0 A     ****
@<TRIPOS>MOLECULE
[[[3,4-dihydroxy-5-(6-imino-1~{H}-purin-9-yl)tetrahydrofuran-2-yl]methoxy-oxido-phosphoryl]oxy-oxido-phosphoryl] hydrogen phosphate
   44    46     1     0     0
SMALL
USER_CHARGES

@<TRIPOS>ATOM
      1 PG          7.4166   -4.1824   -0.7349 P.3       1 ATP         1.5257
      2 O1G         7.3303   -4.5444   -2.2008 O.co2     1 ATP        -0.8737
      3 O2G         7.0257   -5.1768    0.3357 O.co2     1 ATP        -0.8737
      4 O3G         8.9275   -3.6493   -0.4204 O.3       1 ATP        -0.7971
      5 PB          6.5002   -1.8678    0.8609 P.3       1 ATP         1.6824
      6 O1B         5.7443   -2.6400    1.9191 O.co2     1 ATP        -0.8925
      7 O2B         7.8599   -1.2710    1.1481 O.co2     1 ATP        -0.8925
      8 O3B         6.6059   -2.7883   -0.4834 O.3       1 ATP        -0.8047
      9 PA          5.7602    0.3298   -0.9771 P.3       1 ATP         1.5908
     10 O1A         5.8078   -0.4706   -2.2606 O.co2     1 ATP        -0.8932
     11 O2A         6.8838    1.2758   -0.6133 O.co2     1 ATP        -0.8932
     12 O3A         5.5274   -0.6960    0.2732 O.3       1 ATP        -0.8088
     13 O5'         4.3516    1.1575   -0.9026 O.3       1 ATP        -0.5646
     14 C5'         4.0922    1.9801    0.2227 C.3       1 ATP         0.2204
     15 C4'         2.5944    2.0310    0.4653 C.3       1 ATP         0.0965
     16 O4'         1.9327    2.5740   -0.6889 O.3       1 ATP        -0.3907
     17 C3'         1.9685    0.6634    0.6767 C.3       1 ATP         0.0763
     18 O3'         2.1425    0.1975    1.9977 O.3       1 ATP        -0.5884
     19 C2'         0.5176    0.9128    0.3099 C.3       1 ATP         0.0784
     20 O2'        -0.2103    1.4454    1.4152 O.3       1 ATP        -0.6085
     21 C1'         0.6219    1.9765   -0.7844 C.3       1 ATP         0.2186
     22 N9          0.4237    1.4496   -2.1357 N.pl3     1 ATP        -0.1699
     23 C8          1.4069    0.9710   -2.9662 C.ar      1 ATP         0.4438
     24 N7          0.9316    0.5623   -4.1260 N.2       1 ATP        -0.6280
     25 C5         -0.4120    0.7884   -4.0344 C.ar      1 ATP         0.2109
     26 C6         -1.4353    0.5283   -5.0204 C.ar      1 ATP         0.6180
     27 N6         -1.1199    0.0176   -6.1586 N.2       1 ATP        -0.8319
     28 N1         -2.6704    0.9095   -4.5147 N.pl3     1 ATP        -0.8664
     29 C2         -2.8863    1.4571   -3.2520 C.ar      1 ATP         0.5952
     30 N3         -1.9805    1.7017   -2.3442 N.2       1 ATP        -0.5599
     31 C4         -0.7561    1.3381   -2.8112 C.ar      1 ATP         0.0076
     32 HOG3        9.1440   -3.3734    0.4957 H         1 ATP         0.4101
     33 H5'1        4.6069    1.5618    1.0936 H         1 ATP         0.0364
     34 H5'2        4.4824    2.9837    0.0254 H         1 ATP         0.0364
     35 H4'         2.3752    2.7029    1.3156 H         1 ATP         0.0945
     36 H3'         2.4336   -0.1217   -0.0015 H         1 ATP         0.0703
     37 HO3'        1.7160   -0.6716    2.0397 H         1 ATP         0.4099
     38 H2'         0.0316    0.0155   -0.0339 H         1 ATP         0.0676
     39 HO2'       -0.1608    0.7921    2.1351 H         1 ATP         0.4291
     40 H1'        -0.1474    2.7798   -0.6651 H         1 ATP         0.0950
     41 H8          2.4466    0.9468   -2.6694 H         1 ATP         0.1135
     42 HN62       -1.9661   -0.0965   -6.7275 H         1 ATP         0.3588
     43 H2         -3.9481    1.6825   -3.0660 H         1 ATP         0.0302
     44 H44        -3.4814    0.7753   -5.1133 H         1 ATP         0.4215
@<TRIPOS>BOND
     1    1    2 2
     2    1    3 1
     3    1    4 1
     4    1    8 1
     5    4   32 1
     6    5    6 2
     7    5    7 1
     8    5    8 1
     9    5   12 1
    10    9   10 2
    11    9   11 1
    12    9   12 1
    13    9   13 1
    14   13   14 1
    15   14   15 1
    16   14   33 1
    17   14   34 1
    18   15   16 1
    19   15   17 1
    20   15   35 1
    21   16   21 1
    22   17   18 1
    23   17   19 1
    24   17   36 1
    25   18   37 1
    26   19   20 1
    27   19   21 1
    28   19   38 1
    29   20   39 1
    30   21   22 1
    31   21   40 1
    32   22   23 ar
    33   22   31 ar
    34   23   24 ar
    35   23   41 1
    36   24   25 ar
    37   25   26 ar
    38   25   31 ar
    39   26   27 2
    40   26   28 ar
    41   27   42 1
    42   28   29 ar
    43   28   44 1
    44   29   30 ar
    45   29   43 1
    46   30   31 ar
@<TRIPOS>SUBSTRUCTURE
     1 ATP         1 GROUP 0 A     ****
@<TRIPOS>MOLECULE
[[[3,4-dihydroxy-5-(6-imino-1~{H}-purin-9-yl)tetrahydrofuran-2-yl]methoxy-oxido-phosphoryl]oxy-oxido-phosphoryl] hydrogen phosphate
   44    46     1     0     0
SMALL
USER_CHARGES

@<TRIPOS>ATOM
      1 PG          3.7694    1.4115    6.5063 P.3       1 ATP         1.5257
      2 O1G         3.6734    2.6091    7.4250 O.co2     1 ATP        -0.8737
      3 O2G         4.6715    0.2448    6.8420 O.co2     1 ATP        -0.8737
      4 O3G         2.2631    0.8417    6.2377 O.3       1 ATP        -0.7971
      5 PB          5.4600    2.6391    4.4138 P.3       1 ATP         1.6824
      6 O1B         5.5950    4.0082    5.0422 O.co2     1 ATP        -0.8925
      7 O2B         6.5947    1.6402    4.4609 O.co2     1 ATP        -0.8925
      8 O3B         4.1111    1.9268    4.9959 O.3       1 ATP        -0.8047
      9 PA          5.7823    3.4683    1.5918 P.3       1 ATP         1.5908
     10 O1A         6.9788    2.5984    1.2726 O.co2     1 ATP        -0.8932
     11 O2A         5.9489    4.9514    1.8416 O.co2     1 ATP        -0.8932
     12 O3A         4.9854    2.8199    2.8624 O.3       1 ATP        -0.8088
     13 O5'         4.6405    3.2699    0.4378 O.3       1 ATP        -0.5646
     14 C5'         4.0922    1.9801    0.2227 C.3       1 ATP         0.2204
     15 C4'         2.5944    2.0310    0.4653 C.3       1 ATP         0.0965
     16 O4'         1.9327    2.5740   -0.6889 O.3       1 ATP        -0.3907
     17 C3'         1.9685    0.6634    0.6767 C.3       1 ATP         0.0763
     18 O3'         2.1425    0.1975    1.9977 O.3       1 ATP        -0.5884
     19 C2'         0.5176    0.9128    0.3099 C.3       1 ATP         0.0784
     20 O2'        -0.2103    1.4454    1.4152 O.3       1 ATP        -0.6085
     21 C1'         0.6219    1.9765   -0.7844 C.3       1 ATP         0.2186
     22 N9          0.4237    1.4496   -2.1357 N.pl3     1 ATP        -0.1699
     23 C8          1.4069    0.9710   -2.9662 C.ar      1 ATP         0.4438
     24 N7          0.9316    0.5623   -4.1260 N.2       1 ATP        -0.6280
     25 C5         -0.4120    0.7884   -4.0344 C.ar      1 ATP         0.2109
     26 C6         -1.4353    0.5283   -5.0204 C.ar      1 ATP         0.6180
     27 N6         -1.1199    0.0176   -6.1586 N.2       1 ATP        -0.8319
     28 N1         -2.6704    0.9095   -4.5147 N.pl3     1 ATP        -0.8664
     29 C2         -2.8863    1.4571   -3.2520 C.ar      1 ATP         0.5952
     30 N3         -1.9805    1.7017   -2.3442 N.2       1 ATP        -0.5599
     31 C4         -0.7561    1.3381   -2.8112 C.ar      1 ATP         0.0076
     32 HOG3        2.1568    0.0592    5.6558 H         1 ATP         0.4101
     33 H5'1        4.3028    1.6728   -0.8066 H         1 ATP         0.0364
     34 H5'2        4.5677    1.2738    0.9106 H         1 ATP         0.0364
     35 H4'         2.3752    2.7029    1.3156 H         1 ATP         0.0945
     36 H3'         2.4336   -0.1217   -0.0015 H         1 ATP         0.0703
     37 HO3'        1.7160   -0.6716    2.0397 H         1 ATP         0.4099
     38 H2'         0.0316    0.0155   -0.0339 H         1 ATP         0.0676
     39 HO2'       -0.1608    0.7921    2.1351 H         1 ATP         0.4291
     40 H1'        -0.1474    2.7798   -0.6651 H         1 ATP         0.0950
     41 H8          2.4466    0.9468   -2.6694 H         1 ATP         0.1135
     42 HN62       -1.9661   -0.0965   -6.7275 H         1 ATP         0.3588
     43 H2         -3.9481    1.6825   -3.0660 H         1 ATP         0.0302
     44 H44        -3.4814    0.7753   -5.1133 H         1 ATP         0.4215
@<TRIPOS>BOND
     1    1    2 2
     2    1    3 1
     3    1    4 1
     4    1    8 1
     5    4   32 1
     6    5    6 2
     7    5    7 1
     8    5    8 1
     9    5   12 1
    10    9   10 2
    11    9   11 1
    12    9   12 1
    13    9   13 1
    14   13   14 1
    15   14   15 1
    16   14   33 1
    17   14   34 1
    18   15   16 1
    19   15   17 1
    20   15   35 1
    21   16   21 1
    22   17   18 1
    23   17   19 1
    24   17   36 1
    25   18   37 1
    26   19   20 1
    27   19   21 1
    28   19   38 1
    29   20   39 1
    30   21   22 1
    31   21   40 1
    32   22   23 ar
    33   22   31 ar
    34   23   24 ar
    35   23   41 1
    36   24   25 ar
    37   25   26 ar
    38   25   31 ar
    39   26   27 2
    40   26   28 ar
    41   27   42 1
    42   28   29 ar
    43   28   44 1
    44   29   30 ar
    45   29   43 1
    46   30   31 ar
@<TRIPOS>SUBSTRUCTURE
     1 ATP         1 GROUP 0 A     ****
@<TRIPOS>MOLECULE
[[[3,4-dihydroxy-5-(6-imino-1~{H}-purin-9-yl)tetrahydrofuran-2-yl]methoxy-oxido-phosphoryl]oxy-oxido-phosphoryl] hydrogen phosphate
   44    46     1     0     0
SMALL
USER_CHARGES

@<TRIPOS>ATOM
      1 PG         -0.8006    9.1491    3.8051 P.3       1 ATP         1.5257
      2 O1G        -2.0028    9.8412    3.2024 O.co2     1 ATP        -0.8737
      3 O2G         0.5932    9.7040    3.6125 O.co2     1 ATP        -0.8737
      4 O3G        -1.0636    8.9515    5.4044 O.3       1 ATP        -0.7971
      5 PB         -1.9924    6.4606    3.4965 P.3       1 ATP         1.6824
      6 O1B        -2.2145    6.1697    4.9640 O.co2     1 ATP        -0.8925
      7 O2B        -3.1404    6.8524    2.5931 O.co2     1 ATP        -0.8925
      8 O3B        -0.8116    7.5796    3.3576 O.3       1 ATP        -0.8047
      9 PA         -0.5790    5.0299    1.3261 P.3       1 ATP         1.5908
     10 O1A         0.5634    6.0092    1.1642 O.co2     1 ATP        -0.8932
     11 O2A        -1.7210    5.0027    0.3337 O.co2     1 ATP        -0.8932
     12 O3A        -1.2057    5.1972    2.8258 O.3       1 ATP        -0.8088
     13 O5'         0.0178    3.5131    1.4595 O.3       1 ATP        -0.5646
     14 C5'        -0.8811    2.4285    1.6206 C.3       1 ATP         0.2204
     15 C4'        -0.1994    1.3333    2.4288 C.3       1 ATP         0.0965
     16 O4'        -1.1285    0.2356    2.5840 O.3       1 ATP        -0.3907
     17 C3'         1.0324    0.7610    1.7344 C.3       1 ATP         0.0763
     18 O3'         1.9175    0.2377    2.7247 O.3       1 ATP        -0.5884
     19 C2'         0.4468   -0.3802    0.9263 C.3       1 ATP         0.0784
     20 O2'         1.3993   -1.3703    0.5961 O.3       1 ATP        -0.6085
     21 C1'        -0.6159   -0.9100    1.8769 C.3       1 ATP         0.2186
     22 N9         -1.7127   -1.6108    1.2130 N.pl3     1 ATP        -0.1699
     23 C8         -2.0868   -2.9137    1.4327 C.ar      1 ATP         0.4438
     24 N7         -3.1125   -3.2756    0.6878 N.2       1 ATP        -0.6280
     25 C5         -3.4079   -2.1580   -0.0391 C.ar      1 ATP         0.2109
     26 C6         -4.4483   -1.9775   -1.0249 C.ar      1 ATP         0.6180
     27 N6         -5.2418   -2.9492   -1.3113 N.2       1 ATP        -0.8319
     28 N1         -4.3937   -0.6823   -1.5211 N.pl3     1 ATP        -0.8664
     29 C2         -3.4770    0.2901   -1.1271 C.ar      1 ATP         0.5952
     30 N3         -2.5289    0.1525   -0.2402 N.2       1 ATP        -0.5599
     31 C4         -2.5564   -1.1096    0.2655 C.ar      1 ATP         0.0076
     32 HOG3       -0.3690    8.5136    5.9411 H         1 ATP         0.4101
     33 H5'1       -1.7771    2.7849    2.1387 H         1 ATP         0.0364
     34 H5'2       -1.1654    2.0541    0.6320 H         1 ATP         0.0364
     35 H4'         0.0403    1.7078    3.4343 H         1 ATP         0.0945
     36 H3'         1.5907    1.4859    1.1353 H         1 ATP         0.0703
     37 HO3'        2.6839   -0.1150    2.2479 H         1 ATP         0.4099
     38 H2'        -0.0017    0.0018    0.0005 H         1 ATP         0.0676
     39 HO2'        2.0953   -0.9375    0.0709 H         1 ATP         0.4291
     40 H1'        -0.1998   -1.6319    2.6178 H         1 ATP         0.0950
     41 H8         -1.5740   -3.5449    2.1457 H         1 ATP         0.1135
     42 HN62       -5.9117   -2.6433   -2.0256 H         1 ATP         0.3588
     43 H2         -3.6225    1.2454   -1.6553 H         1 ATP         0.0302
     44 H44        -5.0794   -0.4231   -2.2258 H         1 ATP         0.4215
@<TRIPOS>BOND
     1    1    2 2
     2    1    3 1
     3    1    4 1
     4    1    8 1
     5    4   32 1
     6    5    6 2
     7    5    7 1
     8    5    8 1
     9    5   12 1
    10    9   10 2
    11    9   11 1
    12    9   12 1
    13    9   13 1
    14   13   14 1
    15   14   15 1
    16   14   33 1
    17   14   34 1
    18   15   16 1
    19   15   17 1
    20   15   35 1
    21   16   21 1
    22   17   18 1
    23   17   19 1
    24   17   36 1
    25   18   37 1
    26   19   20 1
    27   19   21 1
    28   19   38 1
    29   20   39 1
    30   21   22 1
    31   21   40 1
    32   22   23 ar
    33   22   31 ar
    34   23   24 ar
    35   23   41 1
    36   24   25 ar
    37   25   26 ar
    38   25   31 ar
    39   26   27 2
    40   26   28 ar
    41   27   42 1
    42   28   29 ar
    43   28   44 1
    44   29   30 ar
    45   29   43 1
    46   30   31 ar
@<TRIPOS>SUBSTRUCTURE
     1 ATP         1 GROUP 0 A     ****
@<TRIPOS>MOLECULE
[[[3,4-dihydroxy-5-(6-imino-1~{H}-purin-9-yl)tetrahydrofuran-2-yl]methoxy-oxido-phosphoryl]oxy-oxido-phosphoryl] hydrogen phosphate
   44    46     1     0     0
SMALL
USER_CHARGES

@<TRIPOS>ATOM
      1 PG         -0.1816    7.6043   -3.1403 P.3       1 ATP         1.5257
      2 O1G        -1.4383    8.4418   -3.2217 O.co2     1 ATP        -0.8737
      3 O2G         0.4253    6.9907   -4.3824 O.co2     1 ATP        -0.8737
      4 O3G         0.9707    8.4711   -2.3743 O.3       1 ATP        -0.7971
      5 PB         -1.4007    5.1489   -2.0320 P.3       1 ATP         1.6824
      6 O1B        -2.8262    5.6485   -1.9572 O.co2     1 ATP        -0.8925
      7 O2B        -0.9604    4.1968   -3.1216 O.co2     1 ATP        -0.8925
      8 O3B        -0.3943    6.4345   -2.0222 O.3       1 ATP        -0.8047
      9 PA          0.4528    3.9705   -0.0493 P.3       1 ATP         1.5908
     10 O1A         1.4111    5.1388    0.0343 O.co2     1 ATP        -0.8932
     11 O2A         0.8144    2.7281   -0.8338 O.co2     1 ATP        -0.8932
     12 O3A        -0.9922    4.5136   -0.5848 O.3       1 ATP        -0.8088
     13 O5'         0.0178    3.5131    1.4595 O.3       1 ATP        -0.5646
     14 C5'        -0.8811    2.4285    1.6206 C.3       1 ATP         0.2204
     15 C4'        -0.1994    1.3333    2.4288 C.3       1 ATP         0.0965
     16 O4'        -1.1285    0.2356    2.5840 O.3       1 ATP        -0.3907
     17 C3'         1.0324    0.7610    1.7344 C.3       1 ATP         0.0763
     18 O3'         1.9175    0.2377    2.7247 O.3       1 ATP        -0.5884
     19 C2'         0.4468   -0.3802    0.9263 C.3       1 ATP         0.0784
     20 O2'         1.3993   -1.3703    0.5961 O.3       1 ATP        -0.6085
     21 C1'        -0.6159   -0.9100    1.8769 C.3       1 ATP         0.2186
     22 N9         -1.7127   -1.6108    1.2130 N.pl3     1 ATP        -0.1699
     23 C8         -1.7690   -2.9583    0.9549 C.ar      1 ATP         0.4438
     24 N7         -2.8827   -3.3076    0.3418 N.2       1 ATP        -0.6280
     25 C5         -3.5683   -2.1351    0.2017 C.ar      1 ATP         0.2109
     26 C6         -4.8617   -1.9185   -0.4044 C.ar      1 ATP         0.6180
     27 N6         -5.5166   -2.9094   -0.8993 N.2       1 ATP        -0.8319
     28 N1         -5.1837   -0.5701   -0.3344 N.pl3     1 ATP        -0.8664
     29 C2         -4.3821    0.4180    0.2330 C.ar      1 ATP         0.5952
     30 N3         -3.2117    0.2488    0.7860 N.2       1 ATP        -0.5599
     31 C4         -2.8672   -1.0657    0.7327 C.ar      1 ATP         0.0076
     32 HOG3        1.8522    8.0617   -2.2419 H         1 ATP         0.4101
     33 H5'1       -1.7771    2.7849    2.1387 H         1 ATP         0.0364
     34 H5'2       -1.1654    2.0541    0.6320 H         1 ATP         0.0364
     35 H4'         0.0403    1.7078    3.4343 H         1 ATP         0.0945
     36 H3'         1.5907    1.4859    1.1353 H         1 ATP         0.0703
     37 HO3'        2.6839   -0.1150    2.2479 H         1 ATP         0.4099
     38 H2'        -0.0017    0.0018    0.0005 H         1 ATP         0.0676
     39 HO2'        2.0953   -0.9375    0.0709 H         1 ATP         0.4291
     40 H1'        -0.1998   -1.6319    2.6178 H         1 ATP         0.0950
     41 H8         -0.9697   -3.6300    1.2371 H         1 ATP         0.1135
     42 HN62       -6.4060   -2.5723   -1.2840 H         1 ATP         0.3588
     43 H2         -4.8409    1.4176    0.1757 H         1 ATP         0.0302
     44 H44        -6.0768   -0.2826   -0.7263 H         1 ATP         0.4215
@<TRIPOS>BOND
     1    1    2 2
     2    1    3 1
     3    1    4 1
     4    1    8 1
     5    4   32 1
     6    5    6 2
     7    5    7 1
     8    5    8 1
     9    5   12 1
    10    9   10 2
    11    9   11 1
    12    9   12 1
    13    9   13 1
    14   13   14 1
    15   14   15 1
    16   14   33 1
    17   14   34 1
    18   15   16 1
    19   15   17 1
    20   15   35 1
    21   16   21 1
    22   17   18 1
    23   17   19 1
    24   17   36 1
    25   18   37 1
    26   19   20 1
    27   19   21 1
    28   19   38 1
    29   20   39 1
    30   21   22 1
    31   21   40 1
    32   22   23 ar
    33   22   31 ar
    34   23   24 ar
    35   23   41 1
    36   24   25 ar
    37   25   26 ar
    38   25   31 ar
    39   26   27 2
    40   26   28 ar
    41   27   42 1
    42   28   29 ar
    43   28   44 1
    44   29   30 ar
    45   29   43 1
    46   30   31 ar
@<TRIPOS>SUBSTRUCTURE
     1 ATP         1 GROUP 0 A     ****
@<TRIPOS>MOLECULE
[[[3,4-dihydroxy-5-(6-imino-1~{H}-purin-9-yl)tetrahydrofuran-2-yl]methoxy-oxido-phosphoryl]oxy-oxido-phosphoryl] hydrogen phosphate
   44    46     1     0     0
SMALL
USER_CHARGES

@<TRIPOS>ATOM
      1 PG          8.4314   -0.0665   -0.3181 P.3       1 ATP         1.5257
      2 O1G         7.0657    0.1692   -0.9237 O.co2     1 ATP        -0.8737
      3 O2G         8.6420   -1.1339    0.7326 O.co2     1 ATP        -0.8737
      4 O3G         9.4999   -0.3119   -1.5279 O.3       1 ATP        -0.7971
      5 PB          8.4909    2.2830    1.4764 P.3       1 ATP         1.6824
      6 O1B         8.3898    1.4291    2.7206 O.co2     1 ATP        -0.8925
      7 O2B         9.2764    3.5755    1.4751 O.co2     1 ATP        -0.8925
      8 O3B         9.0153    1.3506    0.2430 O.3       1 ATP        -0.8047
      9 PA          5.7823    3.4683    1.5918 P.3       1 ATP         1.5908
     10 O1A         6.2104    4.9193    1.6338 O.co2     1 ATP        -0.8932
     11 O2A         5.3136    2.7635    2.8462 O.co2     1 ATP        -0.8932
     12 O3A         6.9844    2.5850    0.9251 O.3       1 ATP        -0.8088
     13 O5'         4.6405    3.2699    0.4378 O.3       1 ATP        -0.5646
     14 C5'         4.0922    1.9801    0.2227 C.3       1 ATP         0.2204
     15 C4'         2.5944    2.0310    0.4653 C.3       1 ATP         0.0965
     16 O4'         1.9327    2.5740   -0.6889 O.3       1 ATP        -0.3907
     17 C3'         1.9685    0.6634    0.6767 C.3       1 ATP         0.0763
     18 O3'         2.1425    0.1975    1.9977 O.3       1 ATP        -0.5884
     19 C2'         0.5176    0.9128    0.3099 C.3       1 ATP         0.0784
     20 O2'        -0.2103    1.4454    1.4152 O.3       1 ATP        -0.6085
     21 C1'         0.6219    1.9765   -0.7844 C.3       1 ATP         0.2186
     22 N9          0.4237    1.4496   -2.1357 N.pl3     1 ATP        -0.1699
     23 C8          1.4069    0.9710   -2.9662 C.ar      1 ATP         0.4438
     24 N7          0.9316    0.5623   -4.1260 N.2       1 ATP        -0.6280
     25 C5         -0.4120    0.7884   -4.0344 C.ar      1 ATP         0.2109
     26 C6         -1.4353    0.5283   -5.0204 C.ar      1 ATP         0.6180
     27 N6         -1.1199    0.0176   -6.1586 N.2       1 ATP        -0.8319
     28 N1         -2.6704    0.9095   -4.5147 N.pl3     1 ATP        -0.8664
     29 C2         -2.8863    1.4571   -3.2520 C.ar      1 ATP         0.5952
     30 N3         -1.9805    1.7017   -2.3442 N.2       1 ATP        -0.5599
     31 C4         -0.7561    1.3381   -2.8112 C.ar      1 ATP         0.0076
     32 HOG3       10.4379   -0.4804   -1.2954 H         1 ATP         0.4101
     33 H5'1        4.3028    1.6728   -0.8066 H         1 ATP         0.0364
     34 H5'2        4.5677    1.2738    0.9106 H         1 ATP         0.0364
     35 H4'         2.3752    2.7029    1.3156 H         1 ATP         0.0945
     36 H3'         2.4336   -0.1217   -0.0015 H         1 ATP         0.0703
     37 HO3'        1.7160   -0.6716    2.0397 H         1 ATP         0.4099
     38 H2'         0.0316    0.0155   -0.0339 H         1 ATP         0.0676
     39 HO2'       -0.1608    0.7921    2.1351 H         1 ATP         0.4291
     40 H1'        -0.1474    2.7798   -0.6651 H         1 ATP         0.0950
     41 H8          2.4466    0.9468   -2.6694 H         1 ATP         0.1135
     42 HN62       -1.9661   -0.0965   -6.7275 H         1 ATP         0.3588
     43 H2         -3.9481    1.6825   -3.0660 H         1 ATP         0.0302
     44 H44        -3.4814    0.7753   -5.1133 H         1 ATP         0.4215
@<TRIPOS>BOND
     1    1    2 2
     2    1    3 1
     3    1    4 1
     4    1    8 1
     5    4   32 1
     6    5    6 2
     7    5    7 1
     8    5    8 1
     9    5   12 1
    10    9   10 2
    11    9   11 1
    12    9   12 1
    13    9   13 1
    14   13   14 1
    15   14   15 1
    16   14   33 1
    17   14   34 1
    18   15   16 1
    19   15   17 1
    20   15   35 1
    21   16   21 1
    22   17   18 1
    23   17   19 1
    24   17   36 1
    25   18   37 1
    26   19   20 1
    27   19   21 1
    28   19   38 1
    29   20   39 1
    30   21   22 1
    31   21   40 1
    32   22   23 ar
    33   22   31 ar
    34   23   24 ar
    35   23   41 1
    36   24   25 ar
    37   25   26 ar
    38   25   31 ar
    39   26   27 2
    40   26   28 ar
    41   27   42 1
    42   28   29 ar
    43   28   44 1
    44   29   30 ar
    45   29   43 1
    46   30   31 ar
@<TRIPOS>SUBSTRUCTURE
     1 ATP         1 GROUP 0 A     ****
@<TRIPOS>MOLECULE
[[[3,4-dihydroxy-5-(6-imino-1~{H}-purin-9-yl)tetrahydrofuran-2-yl]methoxy-oxido-phosphoryl]oxy-oxido-phosphoryl] hydrogen phosphate
   44    46     1     0     0
SMALL
USER_CHARGES

@<TRIPOS>ATOM
      1 PG         -2.5048    3.5908    7.8209 P.3       1 ATP         1.5257
      2 O1G        -2.0262    4.7839    8.6177 O.co2     1 ATP        -0.8737
      3 O2G        -2.2498    2.1804    8.3043 O.co2     1 ATP        -0.8737
      4 O3G        -4.1043    3.7617    7.5411 O.3       1 ATP        -0.7971
      5 PB         -2.1242    4.9651    5.2306 P.3       1 ATP         1.6824
      6 O1B        -3.5843    5.1097    4.8635 O.co2     1 ATP        -0.8925
      7 O2B        -1.3252    6.1424    5.7435 O.co2     1 ATP        -0.8925
      8 O3B        -1.9697    3.7284    6.2852 O.3       1 ATP        -0.8047
      9 PA         -1.0308    4.9148    2.4816 P.3       1 ATP         1.5908
     10 O1A        -0.1059    6.1044    2.6221 O.co2     1 ATP        -0.8932
     11 O2A        -2.3467    5.0408    1.7453 O.co2     1 ATP        -0.8932
     12 O3A        -1.3299    4.3036    3.9671 O.3       1 ATP        -0.8088
     13 O5'        -0.2062    3.6557    1.8417 O.3       1 ATP        -0.5646
     14 C5'        -0.8811    2.4285    1.6206 C.3       1 ATP         0.2204
     15 C4'        -0.1994    1.3333    2.4288 C.3       1 ATP         0.0965
     16 O4'        -1.1285    0.2356    2.5840 O.3       1 ATP        -0.3907
     17 C3'         1.0324    0.7610    1.7344 C.3       1 ATP         0.0763
     18 O3'         1.9175    0.2377    2.7247 O.3       1 ATP        -0.5884
     19 C2'         0.4468   -0.3802    0.9263 C.3       1 ATP         0.0784
     20 O2'         1.3993   -1.3703    0.5961 O.3       1 ATP        -0.6085
     21 C1'        -0.6159   -0.9100    1.8769 C.3       1 ATP         0.2186
     22 N9         -1.7127   -1.6108    1.2130 N.pl3     1 ATP        -0.1699
     23 C8         -2.8662   -1.0361    0.7388 C.ar      1 ATP         0.4438
     24 N7         -3.6774   -1.9166    0.1867 N.2       1 ATP        -0.6280
     25 C5         -3.0159   -3.1045    0.3122 C.ar      1 ATP         0.2109
     26 C6         -3.4377   -4.4169   -0.1199 C.ar      1 ATP         0.6180
     27 N6         -4.5720   -4.5691   -0.7080 N.2       1 ATP        -0.8319
     28 N1         -2.4600   -5.3463    0.2071 N.pl3     1 ATP        -0.8664
     29 C2         -1.2595   -5.0554    0.8515 C.ar      1 ATP         0.5952
     30 N3         -0.8555   -3.8803    1.2516 N.2       1 ATP        -0.5599
     31 C4         -1.7946   -2.9457    0.9448 C.ar      1 ATP         0.0076
     32 HOG3       -4.5664    3.0625    7.0313 H         1 ATP         0.4101
     33 H5'1       -1.9256    2.5380    1.9293 H         1 ATP         0.0364
     34 H5'2       -0.8474    2.1930    0.5521 H         1 ATP         0.0364
     35 H4'         0.0403    1.7078    3.4343 H         1 ATP         0.0945
     36 H3'         1.5907    1.4859    1.1353 H         1 ATP         0.0703
     37 HO3'        2.1521    0.9800    3.3017 H         1 ATP         0.4099
     38 H2'        -0.0017    0.0018    0.0005 H         1 ATP         0.0676
     39 HO2'        1.7495   -1.7243    1.4324 H         1 ATP         0.4291
     40 H1'        -0.1998   -1.6319    2.6178 H         1 ATP         0.0950
     41 H8         -3.0558    0.0252    0.8256 H         1 ATP         0.1135
     42 HN62       -4.7047   -5.5592   -0.9421 H         1 ATP         0.3588
     43 H2         -0.6372   -5.9505    1.0077 H         1 ATP         0.0302
     44 H44        -2.6338   -6.3155   -0.0469 H         1 ATP         0.4215
@<TRIPOS>BOND
     1    1    2 2
     2    1    3 1
     3    1    4 1
     4    1    8 1
     5    4   32 1
     6    5    6 2
     7    5    7 1
     8    5    8 1
     9    5   12 1
    10    9   10 2
    11    9   11 1
    12    9   12 1
    13    9   13 1
    14   13   14 1
    15   14   15 1
    16   14   33 1
    17   14   34 1
    18   15   16 1
    19   15   17 1
    20   15   35 1
    21   16   21 1
    22   17   18 1
    23   17   19 1
    24   17   36 1
    25   18   37 1
    26   19   20 1
    27   19   21 1
    28   19   38 1
    29   20   39 1
    30   21   22 1
    31   21   40 1
    32   22   23 ar
    33   22   31 ar
    34   23   24 ar
    35   23   41 1
    36   24   25 ar
    37   25   26 ar
    38   25   31 ar
    39   26   27 2
    40   26   28 ar
    41   27   42 1
    42   28   29 ar
    43   28   44 1
    44   29   30 ar
    45   29   43 1
    46   30   31 ar
@<TRIPOS>SUBSTRUCTURE
     1 ATP         1 GROUP 0 A     ****
@<TRIPOS>MOLECULE
[[[3,4-dihydroxy-5-(6-imino-1~{H}-purin-9-yl)tetrahydrofuran-2-yl]methoxy-oxido-phosphoryl]oxy-oxido-phosphoryl] hydrogen phosphate
   44    46     1     0     0
SMALL
USER_CHARGES

@<TRIPOS>ATOM
      1 PG         -0.1816    7.6043   -3.1403 P.3       1 ATP         1.5257
      2 O1G         0.0966    6.9600   -4.4800 O.co2     1 ATP        -0.8737
      3 O2G         0.7458    8.6580   -2.5770 O.co2     1 ATP        -0.8737
      4 O3G        -1.6993    8.2062   -3.1594 O.3       1 ATP        -0.7971
      5 PB         -1.4007    5.1489   -2.0320 P.3       1 ATP         1.6824
      6 O1B        -2.8262    5.6485   -1.9572 O.co2     1 ATP        -0.8925
      7 O2B        -0.9604    4.1968   -3.1216 O.co2     1 ATP        -0.8925
      8 O3B        -0.3943    6.4345   -2.0222 O.3       1 ATP        -0.8047
      9 PA          0.4528    3.9705   -0.0493 P.3       1 ATP         1.5908
     10 O1A         1.4111    5.1388    0.0343 O.co2     1 ATP        -0.8932
     11 O2A         0.8144    2.7281   -0.8338 O.co2     1 ATP        -0.8932
     12 O3A        -0.9922    4.5136   -0.5848 O.3       1 ATP        -0.8088
     13 O5'         0.0178    3.5131    1.4595 O.3       1 ATP        -0.5646
     14 C5'        -0.8811    2.4285    1.6206 C.3       1 ATP         0.2204
     15 C4'        -0.1994    1.3333    2.4288 C.3       1 ATP         0.0965
     16 O4'        -1.1285    0.2356    2.5840 O.3       1 ATP        -0.3907
     17 C3'         1.0324    0.7610    1.7344 C.3       1 ATP         0.0763
     18 O3'         1.9175    0.2377    2.7247 O.3       1 ATP        -0.5884
     19 C2'         0.4468   -0.3802    0.9263 C.3       1 ATP         0.0784
     20 O2'         1.3993   -1.3703    0.5961 O.3       1 ATP        -0.6085
     21 C1'        -0.6159   -0.9100    1.8769 C.3       1 ATP         0.2186
     22 N9         -1.7127   -1.6108    1.2130 N.pl3     1 ATP        -0.1699
     23 C8         -2.8662   -1.0361    0.7388 C.ar      1 ATP         0.4438
     24 N7         -3.6774   -1.9166    0.1867 N.2       1 ATP        -0.6280
     25 C5         -3.0159   -3.1045    0.3122 C.ar      1 ATP         0.2109
     26 C6         -3.4377   -4.4169   -0.1199 C.ar      1 ATP         0.6180
     27 N6         -4.5720   -4.5691   -0.7080 N.2       1 ATP        -0.8319
     28 N1         -2.4600   -5.3463    0.2071 N.pl3     1 ATP        -0.8664
     29 C2         -1.2595   -5.0554    0.8515 C.ar      1 ATP         0.5952
     30 N3         -0.8555   -3.8803    1.2516 N.2       1 ATP        -0.5599
     31 C4         -1.7946   -2.9457    0.9448 C.ar      1 ATP         0.0076
     32 HOG3       -2.0320    8.6594   -2.3555 H         1 ATP         0.4101
     33 H5'1       -1.7771    2.7849    2.1387 H         1 ATP         0.0364
     34 H5'2       -1.1654    2.0541    0.6320 H         1 ATP         0.0364
     35 H4'         0.0403    1.7078    3.4343 H         1 ATP         0.0945
     36 H3'         1.5907    1.4859    1.1353 H         1 ATP         0.0703
     37 HO3'        2.1521    0.9800    3.3017 H         1 ATP         0.4099
     38 H2'        -0.0017    0.0018    0.0005 H         1 ATP         0.0676
     39 HO2'        0.9369   -2.0558    0.0825 H         1 ATP         0.4291
     40 H1'        -0.1998   -1.6319    2.6178 H         1 ATP         0.0950
     41 H8         -3.0558    0.0252    0.8256 H         1 ATP         0.1135
     42 HN62       -4.7047   -5.5592   -0.9421 H         1 ATP         0.3588
     43 H2         -0.6372   -5.9505    1.0077 H         1 ATP         0.0302
     44 H44        -2.6338   -6.3155   -0.0469 H         1 ATP         0.4215
@<TRIPOS>BOND
     1    1    2 2
     2    1    3 1
     3    1    4 1
     4    1    8 1
     5    4   32 1
     6    5    6 2
     7    5    7 1
     8    5    8 1
     9    5   12 1
    10    9   10 2
    11    9   11 1
    12    9   12 1
    13    9   13 1
    14   13   14 1
    15   14   15 1
    16   14   33 1
    17   14   34 1
    18   15   16 1
    19   15   17 1
    20   15   35 1
    21   16   21 1
    22   17   18 1
    23   17   19 1
    24   17   36 1
    25   18   37 1
    26   19   20 1
    27   19   21 1
    28   19   38 1
    29   20   39 1
    30   21   22 1
    31   21   40 1
    32   22   23 ar
    33   22   31 ar
    34   23   24 ar
    35   23   41 1
    36   24   25 ar
    37   25   26 ar
    38   25   31 ar
    39   26   27 2
    40   26   28 ar
    41   27   42 1
    42   28   29 ar
    43   28   44 1
    44   29   30 ar
    45   29   43 1
    46   30   31 ar
@<TRIPOS>SUBSTRUCTURE
     1 ATP         1 GROUP 0 A     ****
@<TRIPOS>MOLECULE
[[[3,4-dihydroxy-5-(6-imino-1~{H}-purin-9-yl)tetrahydrofuran-2-yl]methoxy-oxido-phosphoryl]oxy-oxido-phosphoryl] hydrogen phosphate
   44    46     1     0     0
SMALL
USER_CHARGES

@<TRIPOS>ATOM
      1 PG         -5.2630    7.5828    0.0189 P.3       1 ATP         1.5257
      2 O1G        -6.3069    7.0589   -0.9420 O.co2     1 ATP        -0.8737
      3 O2G        -4.4650    8.8268   -0.3029 O.co2     1 ATP        -0.8737
      4 O3G        -5.9573    7.7768    1.4838 O.3       1 ATP        -0.7971
      5 PB         -3.1521    5.5916   -0.5491 P.3       1 ATP         1.6824
      6 O1B        -3.9059    4.7902   -1.5868 O.co2     1 ATP        -0.8925
      7 O2B        -2.0628    6.5621   -0.9482 O.co2     1 ATP        -0.8925
      8 O3B        -4.2314    6.3747    0.3929 O.3       1 ATP        -0.8047
      9 PA         -3.3161    3.4234    1.4576 P.3       1 ATP         1.5908
     10 O1A        -3.8159    2.3395    0.5272 O.co2     1 ATP        -0.8932
     11 O2A        -4.2599    4.1154    2.4166 O.co2     1 ATP        -0.8932
     12 O3A        -2.5549    4.5661    0.5718 O.3       1 ATP        -0.8088
     13 O5'        -2.0401    2.8620    2.3128 O.3       1 ATP        -0.5646
     14 C5'        -0.8811    2.4285    1.6206 C.3       1 ATP         0.2204
     15 C4'        -0.1994    1.3333    2.4288 C.3       1 ATP         0.0965
     16 O4'        -1.1285    0.2356    2.5840 O.3       1 ATP        -0.3907
     17 C3'         1.0324    0.7610    1.7344 C.3       1 ATP         0.0763
     18 O3'         1.9175    0.2377    2.7247 O.3       1 ATP        -0.5884
     19 C2'         0.4468   -0.3802    0.9263 C.3       1 ATP         0.0784
     20 O2'         1.3993   -1.3703    0.5961 O.3       1 ATP        -0.6085
     21 C1'        -0.6159   -0.9100    1.8769 C.3       1 ATP         0.2186
     22 N9         -1.7127   -1.6108    1.2130 N.pl3     1 ATP        -0.1699
     23 C8         -1.6202   -2.3321    0.0482 C.ar      1 ATP         0.4438
     24 N7         -2.7754   -2.8539   -0.3142 N.2       1 ATP        -0.6280
     25 C5         -3.6439   -2.4502    0.6592 C.ar      1 ATP         0.2109
     26 C6         -5.0563   -2.7308    0.7745 C.ar      1 ATP         0.6180
     27 N6         -5.6468   -3.4480   -0.1158 N.2       1 ATP        -0.8319
     28 N1         -5.5549   -2.1241    1.9191 N.pl3     1 ATP        -0.8664
     29 C2         -4.8068   -1.3637    2.8153 C.ar      1 ATP         0.5952
     30 N3         -3.5318   -1.0957    2.7338 N.2       1 ATP        -0.5599
     31 C4         -3.0130   -1.6778    1.6196 C.ar      1 ATP         0.0076
     32 HOG3       -5.4050    8.1131    2.2215 H         1 ATP         0.4101
     33 H5'1       -1.1767    2.0502    0.6368 H         1 ATP         0.0364
     34 H5'2       -0.2080    3.2814    1.4876 H         1 ATP         0.0364
     35 H4'         0.0403    1.7078    3.4343 H         1 ATP         0.0945
     36 H3'         1.5907    1.4859    1.1353 H         1 ATP         0.0703
     37 HO3'        2.6839   -0.1150    2.2479 H         1 ATP         0.4099
     38 H2'        -0.0017    0.0018    0.0005 H         1 ATP         0.0676
     39 HO2'        2.0953   -0.9375    0.0709 H         1 ATP         0.4291
     40 H1'        -0.1998   -1.6319    2.6178 H         1 ATP         0.0950
     41 H8         -0.6865   -2.4395   -0.4871 H         1 ATP         0.1135
     42 HN62       -6.6394   -3.5426    0.1257 H         1 ATP         0.3588
     43 H2         -5.4125   -0.9811    3.6517 H         1 ATP         0.0302
     44 H44        -6.5442   -2.2475    2.1195 H         1 ATP         0.4215
@<TRIPOS>BOND
     1    1    2 2
     2    1    3 1
     3    1    4 1
     4    1    8 1
     5    4   32 1
     6    5    6 2
     7    5    7 1
     8    5    8 1
     9    5   12 1
    10    9   10 2
    11    9   11 1
    12    9   12 1
    13    9   13 1
    14   13   14 1
    15   14   15 1
    16   14   33 1
    17   14   34 1
    18   15   16 1
    19   15   17 1
    20   15   35 1
    21   16   21 1
    22   17   18 1
    23   17   19 1
    24   17   36 1
    25   18   37 1
    26   19   20 1
    27   19   21 1
    28   19   38 1
    29   20   39 1
    30   21   22 1
    31   21   40 1
    32   22   23 ar
    33   22   31 ar
    34   23   24 ar
    35   23   41 1
    36   24   25 ar
    37   25   26 ar
    38   25   31 ar
    39   26   27 2
    40   26   28 ar
    41   27   42 1
    42   28   29 ar
    43   28   44 1
    44   29   30 ar
    45   29   43 1
    46   30   31 ar
@<TRIPOS>SUBSTRUCTURE
     1 ATP         1 GROUP 0 A     ****
@<TRIPOS>MOLECULE
[[[3,4-dihydroxy-5-(6-imino-1~{H}-purin-9-yl)tetrahydrofuran-2-yl]methoxy-oxido-phosphoryl]oxy-oxido-phosphoryl] hydrogen phosphate
   44    46     1     0     0
SMALL
USER_CHARGES

@<TRIPOS>ATOM
      1 PG          7.2356   -0.4266    3.0342 P.3       1 ATP         1.5257
      2 O1G         6.0090   -0.4724    3.9178 O.co2     1 ATP        -0.8737
      3 O2G         7.7796    0.8905    2.5273 O.co2     1 ATP        -0.8737
      4 O3G         8.4430   -1.2333    3.7807 O.3       1 ATP        -0.7971
      5 PB          5.9616   -1.3297    0.5232 P.3       1 ATP         1.6824
      6 O1B         6.2797   -2.4235   -0.4717 O.co2     1 ATP        -0.8925
      7 O2B         4.5664   -1.1607    1.0822 O.co2     1 ATP        -0.8925
      8 O3B         7.0149   -1.4307    1.7666 O.3       1 ATP        -0.8047
      9 PA          5.8979    0.9309   -1.3848 P.3       1 ATP         1.5908
     10 O1A         5.9209    0.0232   -2.5956 O.co2     1 ATP        -0.8932
     11 O2A         6.5856    2.2784   -1.4151 O.co2     1 ATP        -0.8932
     12 O3A         6.4552    0.0987   -0.0938 O.3       1 ATP        -0.8088
     13 O5'         4.3516    1.1575   -0.9026 O.3       1 ATP        -0.5646
     14 C5'         4.0922    1.9801    0.2227 C.3       1 ATP         0.2204
     15 C4'         2.5944    2.0310    0.4653 C.3       1 ATP         0.0965
     16 O4'         1.9327    2.5740   -0.6889 O.3       1 ATP        -0.3907
     17 C3'         1.9685    0.6634    0.6767 C.3       1 ATP         0.0763
     18 O3'         2.1425    0.1975    1.9977 O.3       1 ATP        -0.5884
     19 C2'         0.5176    0.9128    0.3099 C.3       1 ATP         0.0784
     20 O2'        -0.2103    1.4454    1.4152 O.3       1 ATP        -0.6085
     21 C1'         0.6219    1.9765   -0.7844 C.3       1 ATP         0.2186
     22 N9          0.4237    1.4496   -2.1357 N.pl3     1 ATP        -0.1699
     23 C8          1.4069    0.9710   -2.9662 C.ar      1 ATP         0.4438
     24 N7          0.9316    0.5623   -4.1260 N.2       1 ATP        -0.6280
     25 C5         -0.4120    0.7884   -4.0344 C.ar      1 ATP         0.2109
     26 C6         -1.4353    0.5283   -5.0204 C.ar      1 ATP         0.6180
     27 N6         -1.1199    0.0176   -6.1586 N.2       1 ATP        -0.8319
     28 N1         -2.6704    0.9095   -4.5147 N.pl3     1 ATP        -0.8664
     29 C2         -2.8863    1.4571   -3.2520 C.ar      1 ATP         0.5952
     30 N3         -1.9805    1.7017   -2.3442 N.2       1 ATP        -0.5599
     31 C4         -0.7561    1.3381   -2.8112 C.ar      1 ATP         0.0076
     32 HOG3        9.3124   -1.2936    3.3305 H         1 ATP         0.4101
     33 H5'1        4.6069    1.5618    1.0936 H         1 ATP         0.0364
     34 H5'2        4.4824    2.9837    0.0254 H         1 ATP         0.0364
     35 H4'         2.3752    2.7029    1.3156 H         1 ATP         0.0945
     36 H3'         2.4336   -0.1217   -0.0015 H         1 ATP         0.0703
     37 HO3'        1.7160   -0.6716    2.0397 H         1 ATP         0.4099
     38 H2'         0.0316    0.0155   -0.0339 H         1 ATP         0.0676
     39 HO2'       -0.1608    0.7921    2.1351 H         1 ATP         0.4291
     40 H1'        -0.1474    2.7798   -0.6651 H         1 ATP         0.0950
     41 H8          2.4466    0.9468   -2.6694 H         1 ATP         0.1135
     42 HN62       -1.9661   -0.0965   -6.7275 H         1 ATP         0.3588
     43 H2         -3.9481    1.6825   -3.0660 H         1 ATP         0.0302
     44 H44        -3.4814    0.7753   -5.1133 H         1 ATP         0.4215
@<TRIPOS>BOND
     1    1    2 2
     2    1    3 1
     3    1    4 1
     4    1    8 1
     5    4   32 1
     6    5    6 2
     7    5    7 1
     8    5    8 1
     9    5   12 1
    10    9   10 2
    11    9   11 1
    12    9   12 1
    13    9   13 1
    14   13   14 1
    15   14   15 1
    16   14   33 1
    17   14   34 1
    18   15   16 1
    19   15   17 1
    20   15   35 1
    21   16   21 1
    22   17   18 1
    23   17   19 1
    24   17   36 1
    25   18   37 1
    26   19   20 1
    27   19   21 1
    28   19   38 1
    29   20   39 1
    30   21   22 1
    31   21   40 1
    32   22   23 ar
    33   22   31 ar
    34   23   24 ar
    35   23   41 1
    36   24   25 ar
    37   25   26 ar
    38   25   31 ar
    39   26   27 2
    40   26   28 ar
    41   27   42 1
    42   28   29 ar
    43   28   44 1
    44   29   30 ar
    45   29   43 1
    46   30   31 ar
@<TRIPOS>SUBSTRUCTURE
     1 ATP         1 GROUP 0 A     ****
@<TRIPOS>MOLECULE
[[[3,4-dihydroxy-5-(6-imino-1~{H}-purin-9-yl)tetrahydrofuran-2-yl]methoxy-oxido-phosphoryl]oxy-oxido-phosphoryl] hydrogen phosphate
   44    46     1     0     0
SMALL
USER_CHARGES

@<TRIPOS>ATOM
      1 PG         10.0135    1.5192   -2.0122 P.3       1 ATP         1.5257
      2 O1G        10.3120    0.3238   -1.1350 O.co2     1 ATP        -0.8737
      3 O2G        10.9873    2.6721   -2.1127 O.co2     1 ATP        -0.8737
      4 O3G         9.6834    0.9865   -3.5200 O.3       1 ATP        -0.7971
      5 PB          7.6584    3.2751   -2.3498 P.3       1 ATP         1.6824
      6 O1B         8.3661    4.5985   -2.1625 O.co2     1 ATP        -0.8925
      7 O2B         7.2454    2.7951   -3.7234 O.co2     1 ATP        -0.8925
      8 O3B         8.5388    2.1042   -1.6290 O.3       1 ATP        -0.8047
      9 PA          6.2486    3.4952    0.2423 P.3       1 ATP         1.5908
     10 O1A         6.5935    4.9413    0.5251 O.co2     1 ATP        -0.8932
     11 O2A         6.9728    2.3737    0.9547 O.co2     1 ATP        -0.8932
     12 O3A         6.3554    3.2347   -1.3672 O.3       1 ATP        -0.8088
     13 O5'         4.6405    3.2699    0.4378 O.3       1 ATP        -0.5646
     14 C5'         4.0922    1.9801    0.2227 C.3       1 ATP         0.2204
     15 C4'         2.5944    2.0310    0.4653 C.3       1 ATP         0.0965
     16 O4'         1.9327    2.5740   -0.6889 O.3       1 ATP        -0.3907
     17 C3'         1.9685    0.6634    0.6767 C.3       1 ATP         0.0763
     18 O3'         2.1425    0.1975    1.9977 O.3       1 ATP        -0.5884
     19 C2'         0.5176    0.9128    0.3099 C.3       1 ATP         0.0784
     20 O2'        -0.2103    1.4454    1.4152 O.3       1 ATP        -0.6085
     21 C1'         0.6219    1.9765   -0.7844 C.3       1 ATP         0.2186
     22 N9          0.4237    1.4496   -2.1357 N.pl3     1 ATP        -0.1699
     23 C8          1.4069    0.9710   -2.9662 C.ar      1 ATP         0.4438
     24 N7          0.9316    0.5623   -4.1260 N.2       1 ATP        -0.6280
     25 C5         -0.4120    0.7884   -4.0344 C.ar      1 ATP         0.2109
     26 C6         -1.4353    0.5283   -5.0204 C.ar      1 ATP         0.6180
     27 N6         -1.1199    0.0176   -6.1586 N.2       1 ATP        -0.8319
     28 N1         -2.6704    0.9095   -4.5147 N.pl3     1 ATP        -0.8664
     29 C2         -2.8863    1.4571   -3.2520 C.ar      1 ATP         0.5952
     30 N3         -1.9805    1.7017   -2.3442 N.2       1 ATP        -0.5599
     31 C4         -0.7561    1.3381   -2.8112 C.ar      1 ATP         0.0076
     32 HOG3        9.4678    1.6475   -4.2119 H         1 ATP         0.4101
     33 H5'1        4.3028    1.6728   -0.8066 H         1 ATP         0.0364
     34 H5'2        4.5677    1.2738    0.9106 H         1 ATP         0.0364
     35 H4'         2.3752    2.7029    1.3156 H         1 ATP         0.0945
     36 H3'         2.4336   -0.1217   -0.0015 H         1 ATP         0.0703
     37 HO3'        1.7160   -0.6716    2.0397 H         1 ATP         0.4099
     38 H2'         0.0316    0.0155   -0.0339 H         1 ATP         0.0676
     39 HO2'       -1.1270    1.5823    1.1180 H         1 ATP         0.4291
     40 H1'        -0.1474    2.7798   -0.6651 H         1 ATP         0.0950
     41 H8          2.4466    0.9468   -2.6694 H         1 ATP         0.1135
     42 HN62       -1.9661   -0.0965   -6.7275 H         1 ATP         0.3588
     43 H2         -3.9481    1.6825   -3.0660 H         1 ATP         0.0302
     44 H44        -3.4814    0.7753   -5.1133 H         1 ATP         0.4215
@<TRIPOS>BOND
     1    1    2 2
     2    1    3 1
     3    1    4 1
     4    1    8 1
     5    4   32 1
     6    5    6 2
     7    5    7 1
     8    5    8 1
     9    5   12 1
    10    9   10 2
    11    9   11 1
    12    9   12 1
    13    9   13 1
    14   13   14 1
    15   14   15 1
    16   14   33 1
    17   14   34 1
    18   15   16 1
    19   15   17 1
    20   15   35 1
    21   16   21 1
    22   17   18 1
    23   17   19 1
    24   17   36 1
    25   18   37 1
    26   19   20 1
    27   19   21 1
    28   19   38 1
    29   20   39 1
    30   21   22 1
    31   21   40 1
    32   22   23 ar
    33   22   31 ar
    34   23   24 ar
    35   23   41 1
    36   24   25 ar
    37   25   26 ar
    38   25   31 ar
    39   26   27 2
    40   26   28 ar
    41   27   42 1
    42   28   29 ar
    43   28   44 1
    44   29   30 ar
    45   29   43 1
    46   30   31 ar
@<TRIPOS>SUBSTRUCTURE
     1 ATP         1 GROUP 0 A     ****
@<TRIPOS>MOLECULE
[[[3,4-dihydroxy-5-(6-imino-1~{H}-purin-9-yl)tetrahydrofuran-2-yl]methoxy-oxido-phosphoryl]oxy-oxido-phosphoryl] hydrogen phosphate
   44    46     1     0     0
SMALL
USER_CHARGES

@<TRIPOS>ATOM
      1 PG          6.2156   -1.6747   -2.4249 P.3       1 ATP         1.5257
      2 O1G         6.8370   -0.3126   -2.6392 O.co2     1 ATP        -0.8737
      3 O2G         4.7688   -1.9339   -2.7817 O.co2     1 ATP        -0.8737
      4 O3G         7.1423   -2.7912   -3.1736 O.3       1 ATP        -0.7971
      5 PB          5.8845   -1.5131    0.5090 P.3       1 ATP         1.6824
      6 O1B         4.3770   -1.4405    0.4101 O.co2     1 ATP        -0.8925
      7 O2B         6.5608   -2.2017    1.6735 O.co2     1 ATP        -0.8925
      8 O3B         6.4707   -2.1379   -0.8808 O.3       1 ATP        -0.8047
      9 PA          6.3565    1.2771    1.3734 P.3       1 ATP         1.5908
     10 O1A         6.9879    2.4828    0.7118 O.co2     1 ATP        -0.8932
     11 O2A         6.7839    0.8423    2.7584 O.co2     1 ATP        -0.8932
     12 O3A         6.4914   -0.0042    0.3685 O.3       1 ATP        -0.8088
     13 O5'         4.7294    1.4427    1.3696 O.3       1 ATP        -0.5646
     14 C5'         4.0922    1.9801    0.2227 C.3       1 ATP         0.2204
     15 C4'         2.5944    2.0310    0.4653 C.3       1 ATP         0.0965
     16 O4'         1.9327    2.5740   -0.6889 O.3       1 ATP        -0.3907
     17 C3'         1.9685    0.6634    0.6767 C.3       1 ATP         0.0763
     18 O3'         2.1425    0.1975    1.9977 O.3       1 ATP        -0.5884
     19 C2'         0.5176    0.9128    0.3099 C.3       1 ATP         0.0784
     20 O2'        -0.2103    1.4454    1.4152 O.3       1 ATP        -0.6085
     21 C1'         0.6219    1.9765   -0.7844 C.3       1 ATP         0.2186
     22 N9          0.4237    1.4496   -2.1357 N.pl3     1 ATP        -0.1699
     23 C8          1.4069    0.9710   -2.9662 C.ar      1 ATP         0.4438
     24 N7          0.9316    0.5623   -4.1260 N.2       1 ATP        -0.6280
     25 C5         -0.4120    0.7884   -4.0344 C.ar      1 ATP         0.2109
     26 C6         -1.4353    0.5283   -5.0204 C.ar      1 ATP         0.6180
     27 N6         -1.1199    0.0176   -6.1586 N.2       1 ATP        -0.8319
     28 N1         -2.6704    0.9095   -4.5147 N.pl3     1 ATP        -0.8664
     29 C2         -2.8863    1.4571   -3.2520 C.ar      1 ATP         0.5952
     30 N3         -1.9805    1.7017   -2.3442 N.2       1 ATP        -0.5599
     31 C4         -0.7561    1.3381   -2.8112 C.ar      1 ATP         0.0076
     32 HOG3        6.8694   -3.7322   -3.1262 H         1 ATP         0.4101
     33 H5'1        4.4843    2.9854    0.0380 H         1 ATP         0.0364
     34 H5'2        4.3191    1.3446   -0.6392 H         1 ATP         0.0364
     35 H4'         2.3752    2.7029    1.3156 H         1 ATP         0.0945
     36 H3'         2.4336   -0.1217   -0.0015 H         1 ATP         0.0703
     37 HO3'        1.7160   -0.6716    2.0397 H         1 ATP         0.4099
     38 H2'         0.0316    0.0155   -0.0339 H         1 ATP         0.0676
     39 HO2'       -1.1270    1.5823    1.1180 H         1 ATP         0.4291
     40 H1'        -0.1474    2.7798   -0.6651 H         1 ATP         0.0950
     41 H8          2.4466    0.9468   -2.6694 H         1 ATP         0.1135
     42 HN62       -1.9661   -0.0965   -6.7275 H         1 ATP         0.3588
     43 H2         -3.9481    1.6825   -3.0660 H         1 ATP         0.0302
     44 H44        -3.4814    0.7753   -5.1133 H         1 ATP         0.4215
@<TRIPOS>BOND
     1    1    2 2
     2    1    3 1
     3    1    4 1
     4    1    8 1
     5    4   32 1
     6    5    6 2
     7    5    7 1
     8    5    8 1
     9    5   12 1
    10    9   10 2
    11    9   11 1
    12    9   12 1
    13    9   13 1
    14   13   14 1
    15   14   15 1
    16   14   33 1
    17   14   34 1
    18   15   16 1
    19   15   17 1
    20   15   35 1
    21   16   21 1
    22   17   18 1
    23   17   19 1
    24   17   36 1
    25   18   37 1
    26   19   20 1
    27   19   21 1
    28   19   38 1
    29   20   39 1
    30   21   22 1
    31   21   40 1
    32   22   23 ar
    33   22   31 ar
    34   23   24 ar
    35   23   41 1
    36   24   25 ar
    37   25   26 ar
    38   25   31 ar
    39   26   27 2
    40   26   28 ar
    41   27   42 1
    42   28   29 ar
    43   28   44 1
    44   29   30 ar
    45   29   43 1
    46   30   31 ar
@<TRIPOS>SUBSTRUCTURE
     1 ATP         1 GROUP 0 A     ****
@<TRIPOS>MOLECULE
[[[3,4-dihydroxy-5-(6-imino-1~{H}-purin-9-yl)tetrahydrofuran-2-yl]methoxy-oxido-phosphoryl]oxy-oxido-phosphoryl] hydrogen phosphate
   44    46     1     0     0
SMALL
USER_CHARGES

@<TRIPOS>ATOM
      1 PG         -4.6311    7.9008    1.8770 P.3       1 ATP         1.5257
      2 O1G        -5.2199    7.9620    3.2688 O.co2     1 ATP        -0.8737
      3 O2G        -5.5072    7.6332    0.6734 O.co2     1 ATP        -0.8737
      4 O3G        -3.7882    9.2734    1.6097 O.3       1 ATP        -0.7971
      5 PB         -2.0719    6.7716    2.8355 P.3       1 ATP         1.6824
      6 O1B        -1.2041    7.9796    2.5614 O.co2     1 ATP        -0.8925
      7 O2B        -2.5170    6.4293    4.2399 O.co2     1 ATP        -0.8925
      8 O3B        -3.3881    6.8432    1.8721 O.3       1 ATP        -0.8047
      9 PA          0.0330    4.7083    2.5757 P.3       1 ATP         1.5908
     10 O1A        -0.1146    4.1098    3.9578 O.co2     1 ATP        -0.8932
     11 O2A         1.1815    5.6399    2.2548 O.co2     1 ATP        -0.8932
     12 O3A        -1.3630    5.4574    2.1758 O.3       1 ATP        -0.8088
     13 O5'         0.0178    3.5131    1.4595 O.3       1 ATP        -0.5646
     14 C5'        -0.8811    2.4285    1.6206 C.3       1 ATP         0.2204
     15 C4'        -0.1994    1.3333    2.4288 C.3       1 ATP         0.0965
     16 O4'        -1.1285    0.2356    2.5840 O.3       1 ATP        -0.3907
     17 C3'         1.0324    0.7610    1.7344 C.3       1 ATP         0.0763
     18 O3'         1.9175    0.2377    2.7247 O.3       1 ATP        -0.5884
     19 C2'         0.4468   -0.3802    0.9263 C.3       1 ATP         0.0784
     20 O2'         1.3993   -1.3703    0.5961 O.3       1 ATP        -0.6085
     21 C1'        -0.6159   -0.9100    1.8769 C.3       1 ATP         0.2186
     22 N9         -1.7127   -1.6108    1.2130 N.pl3     1 ATP        -0.1699
     23 C8         -1.7690   -2.9583    0.9549 C.ar      1 ATP         0.4438
     24 N7         -2.8827   -3.3076    0.3418 N.2       1 ATP        -0.6280
     25 C5         -3.5683   -2.1351    0.2017 C.ar      1 ATP         0.2109
     26 C6         -4.8617   -1.9185   -0.4044 C.ar      1 ATP         0.6180
     27 N6         -5.5166   -2.9094   -0.8993 N.2       1 ATP        -0.8319
     28 N1         -5.1837   -0.5701   -0.3344 N.pl3     1 ATP        -0.8664
     29 C2         -4.3821    0.4180    0.2330 C.ar      1 ATP         0.5952
     30 N3         -3.2117    0.2488    0.7860 N.2       1 ATP        -0.5599
     31 C4         -2.8672   -1.0657    0.7327 C.ar      1 ATP         0.0076
     32 HOG3       -3.3421    9.3862    0.7434 H         1 ATP         0.4101
     33 H5'1       -1.7771    2.7849    2.1387 H         1 ATP         0.0364
     34 H5'2       -1.1654    2.0541    0.6320 H         1 ATP         0.0364
     35 H4'         0.0403    1.7078    3.4343 H         1 ATP         0.0945
     36 H3'         1.5907    1.4859    1.1353 H         1 ATP         0.0703
     37 HO3'        2.6839   -0.1150    2.2479 H         1 ATP         0.4099
     38 H2'        -0.0017    0.0018    0.0005 H         1 ATP         0.0676
     39 HO2'        2.0953   -0.9375    0.0709 H         1 ATP         0.4291
     40 H1'        -0.1998   -1.6319    2.6178 H         1 ATP         0.0950
     41 H8         -0.9697   -3.6300    1.2371 H         1 ATP         0.1135
     42 HN62       -6.4060   -2.5723   -1.2840 H         1 ATP         0.3588
     43 H2         -4.8409    1.4176    0.1757 H         1 ATP         0.0302
     44 H44        -6.0768   -0.2826   -0.7263 H         1 ATP         0.4215
@<TRIPOS>BOND
     1    1    2 2
     2    1    3 1
     3    1    4 1
     4    1    8 1
     5    4   32 1
     6    5    6 2
     7    5    7 1
     8    5    8 1
     9    5   12 1
    10    9   10 2
    11    9   11 1
    12    9   12 1
    13    9   13 1
    14   13   14 1
    15   14   15 1
    16   14   33 1
    17   14   34 1
    18   15   16 1
    19   15   17 1
    20   15   35 1
    21   16   21 1
    22   17   18 1
    23   17   19 1
    24   17   36 1
    25   18   37 1
    26   19   20 1
    27   19   21 1
    28   19   38 1
    29   20   39 1
    30   21   22 1
    31   21   40 1
    32   22   23 ar
    33   22   31 ar
    34   23   24 ar
    35   23   41 1
    36   24   25 ar
    37   25   26 ar
    38   25   31 ar
    39   26   27 2
    40   26   28 ar
    41   27   42 1
    42   28   29 ar
    43   28   44 1
    44   29   30 ar
    45   29   43 1
    46   30   31 ar
@<TRIPOS>SUBSTRUCTURE
     1 ATP         1 GROUP 0 A     ****
@<TRIPOS>MOLECULE
[[[3,4-dihydroxy-5-(6-imino-1~{H}-purin-9-yl)tetrahydrofuran-2-yl]methoxy-oxido-phosphoryl]oxy-oxido-phosphoryl] hydrogen phosphate
   44    46     1     0     0
SMALL
USER_CHARGES

@<TRIPOS>ATOM
      1 PG          2.3885    4.1331    4.9384 P.3       1 ATP         1.5257
      2 O1G         1.9216    4.0106    3.5051 O.co2     1 ATP        -0.8737
      3 O2G         2.5967    5.4894    5.5748 O.co2     1 ATP        -0.8737
      4 O3G         1.3834    3.2641    5.8874 O.3       1 ATP        -0.7971
      5 PB          5.2324    3.4529    4.4991 P.3       1 ATP         1.6824
      6 O1B         5.6932    4.8620    4.7983 O.co2     1 ATP        -0.8925
      7 O2B         6.0852    2.2568    4.8590 O.co2     1 ATP        -0.8925
      8 O3B         3.7428    3.2435    5.1339 O.3       1 ATP        -0.8047
      9 PA          5.7823    3.4683    1.5918 P.3       1 ATP         1.5908
     10 O1A         6.7312    2.2895    1.5707 O.co2     1 ATP        -0.8932
     11 O2A         6.3063    4.8849    1.4994 O.co2     1 ATP        -0.8932
     12 O3A         4.8353    3.3566    2.9187 O.3       1 ATP        -0.8088
     13 O5'         4.6405    3.2699    0.4378 O.3       1 ATP        -0.5646
     14 C5'         4.0922    1.9801    0.2227 C.3       1 ATP         0.2204
     15 C4'         2.5944    2.0310    0.4653 C.3       1 ATP         0.0965
     16 O4'         1.9327    2.5740   -0.6889 O.3       1 ATP        -0.3907
     17 C3'         1.9685    0.6634    0.6767 C.3       1 ATP         0.0763
     18 O3'         2.1425    0.1975    1.9977 O.3       1 ATP        -0.5884
     19 C2'         0.5176    0.9128    0.3099 C.3       1 ATP         0.0784
     20 O2'        -0.2103    1.4454    1.4152 O.3       1 ATP        -0.6085
     21 C1'         0.6219    1.9765   -0.7844 C.3       1 ATP         0.2186
     22 N9          0.4237    1.4496   -2.1357 N.pl3     1 ATP        -0.1699
     23 C8          1.4069    0.9710   -2.9662 C.ar      1 ATP         0.4438
     24 N7          0.9316    0.5623   -4.1260 N.2       1 ATP        -0.6280
     25 C5         -0.4120    0.7884   -4.0344 C.ar      1 ATP         0.2109
     26 C6         -1.4353    0.5283   -5.0204 C.ar      1 ATP         0.6180
     27 N6         -1.1199    0.0176   -6.1586 N.2       1 ATP        -0.8319
     28 N1         -2.6704    0.9095   -4.5147 N.pl3     1 ATP        -0.8664
     29 C2         -2.8863    1.4571   -3.2520 C.ar      1 ATP         0.5952
     30 N3         -1.9805    1.7017   -2.3442 N.2       1 ATP        -0.5599
     31 C4         -0.7561    1.3381   -2.8112 C.ar      1 ATP         0.0076
     32 HOG3        1.5547    3.2431    6.8530 H         1 ATP         0.4101
     33 H5'1        4.3028    1.6728   -0.8066 H         1 ATP         0.0364
     34 H5'2        4.5677    1.2738    0.9106 H         1 ATP         0.0364
     35 H4'         2.3752    2.7029    1.3156 H         1 ATP         0.0945
     36 H3'         2.4336   -0.1217   -0.0015 H         1 ATP         0.0703
     37 HO3'        1.7160   -0.6716    2.0397 H         1 ATP         0.4099
     38 H2'         0.0316    0.0155   -0.0339 H         1 ATP         0.0676
     39 HO2'       -0.1608    0.7921    2.1351 H         1 ATP         0.4291
     40 H1'        -0.1474    2.7798   -0.6651 H         1 ATP         0.0950
     41 H8          2.4466    0.9468   -2.6694 H         1 ATP         0.1135
     42 HN62       -1.9661   -0.0965   -6.7275 H         1 ATP         0.3588
     43 H2         -3.9481    1.6825   -3.0660 H         1 ATP         0.0302
     44 H44        -3.4814    0.7753   -5.1133 H         1 ATP         0.4215
@<TRIPOS>BOND
     1    1    2 2
     2    1    3 1
     3    1    4 1
     4    1    8 1
     5    4   32 1
     6    5    6 2
     7    5    7 1
     8    5    8 1
     9    5   12 1
    10    9   10 2
    11    9   11 1
    12    9   12 1
    13    9   13 1
    14   13   14 1
    15   14   15 1
    16   14   33 1
    17   14   34 1
    18   15   16 1
    19   15   17 1
    20   15   35 1
    21   16   21 1
    22   17   18 1
    23   17   19 1
    24   17   36 1
    25   18   37 1
    26   19   20 1
    27   19   21 1
    28   19   38 1
    29   20   39 1
    30   21   22 1
    31   21   40 1
    32   22   23 ar
    33   22   31 ar
    34   23   24 ar
    35   23   41 1
    36   24   25 ar
    37   25   26 ar
    38   25   31 ar
    39   26   27 2
    40   26   28 ar
    41   27   42 1
    42   28   29 ar
    43   28   44 1
    44   29   30 ar
    45   29   43 1
    46   30   31 ar
@<TRIPOS>SUBSTRUCTURE
     1 ATP         1 GROUP 0 A     ****
@<TRIPOS>MOLECULE
[[[3,4-dihydroxy-5-(6-imino-1~{H}-purin-9-yl)tetrahydrofuran-2-yl]methoxy-oxido-phosphoryl]oxy-oxido-phosphoryl] hydrogen phosphate
   44    46     1     0     0
SMALL
USER_CHARGES

@<TRIPOS>ATOM
      1 PG         -3.6139    6.3485   -2.4558 P.3       1 ATP         1.5257
      2 O1G        -3.6378    5.1042   -3.3153 O.co2     1 ATP        -0.8737
      3 O2G        -3.0303    7.6426   -2.9777 O.co2     1 ATP        -0.8737
      4 O3G        -5.1297    6.6406   -1.9239 O.3       1 ATP        -0.7971
      5 PB         -1.3715    5.5786   -0.6887 P.3       1 ATP         1.6824
      6 O1B        -1.0874    4.2258   -1.3024 O.co2     1 ATP        -0.8925
      7 O2B        -0.4793    6.7679   -0.9668 O.co2     1 ATP        -0.8925
      8 O3B        -2.9148    5.9921   -1.0247 O.3       1 ATP        -0.8047
      9 PA         -0.3962    4.9846    2.0409 P.3       1 ATP         1.5908
     10 O1A        -1.0788    4.8233    3.3819 O.co2     1 ATP        -0.8932
     11 O2A         0.7937    5.9062    1.8845 O.co2     1 ATP        -0.8932
     12 O3A        -1.5174    5.3999    0.9273 O.3       1 ATP        -0.8088
     13 O5'         0.0178    3.5131    1.4595 O.3       1 ATP        -0.5646
     14 C5'        -0.8811    2.4285    1.6206 C.3       1 ATP         0.2204
     15 C4'        -0.1994    1.3333    2.4288 C.3       1 ATP         0.0965
     16 O4'        -1.1285    0.2356    2.5840 O.3       1 ATP        -0.3907
     17 C3'         1.0324    0.7610    1.7344 C.3       1 ATP         0.0763
     18 O3'         1.9175    0.2377    2.7247 O.3       1 ATP        -0.5884
     19 C2'         0.4468   -0.3802    0.9263 C.3       1 ATP         0.0784
     20 O2'         1.3993   -1.3703    0.5961 O.3       1 ATP        -0.6085
     21 C1'        -0.6159   -0.9100    1.8769 C.3       1 ATP         0.2186
     22 N9         -1.7127   -1.6108    1.2130 N.pl3     1 ATP        -0.1699
     23 C8         -2.0868   -2.9137    1.4327 C.ar      1 ATP         0.4438
     24 N7         -3.1125   -3.2756    0.6878 N.2       1 ATP        -0.6280
     25 C5         -3.4079   -2.1580   -0.0391 C.ar      1 ATP         0.2109
     26 C6         -4.4483   -1.9775   -1.0249 C.ar      1 ATP         0.6180
     27 N6         -5.2418   -2.9492   -1.3113 N.2       1 ATP        -0.8319
     28 N1         -4.3937   -0.6823   -1.5211 N.pl3     1 ATP        -0.8664
     29 C2         -3.4770    0.2901   -1.1271 C.ar      1 ATP         0.5952
     30 N3         -2.5289    0.1525   -0.2402 N.2       1 ATP        -0.5599
     31 C4         -2.5564   -1.1096    0.2655 C.ar      1 ATP         0.0076
     32 HOG3       -5.2804    7.4210   -1.3489 H         1 ATP         0.4101
     33 H5'1       -1.7771    2.7849    2.1387 H         1 ATP         0.0364
     34 H5'2       -1.1654    2.0541    0.6320 H         1 ATP         0.0364
     35 H4'         0.0403    1.7078    3.4343 H         1 ATP         0.0945
     36 H3'         1.5907    1.4859    1.1353 H         1 ATP         0.0703
     37 HO3'        2.6839   -0.1150    2.2479 H         1 ATP         0.4099
     38 H2'        -0.0017    0.0018    0.0005 H         1 ATP         0.0676
     39 HO2'        0.9369   -2.0558    0.0825 H         1 ATP         0.4291
     40 H1'        -0.1998   -1.6319    2.6178 H         1 ATP         0.0950
     41 H8         -1.5740   -3.5449    2.1457 H         1 ATP         0.1135
     42 HN62       -5.9117   -2.6433   -2.0256 H         1 ATP         0.3588
     43 H2         -3.6225    1.2454   -1.6553 H         1 ATP         0.0302
     44 H44        -5.0794   -0.4231   -2.2258 H         1 ATP         0.4215
@<TRIPOS>BOND
     1    1    2 2
     2    1    3 1
     3    1    4 1
     4    1    8 1
     5    4   32 1
     6    5    6 2
     7    5    7 1
     8    5    8 1
     9    5   12 1
    10    9   10 2
    11    9   11 1
    12    9   12 1
    13    9   13 1
    14   13   14 1
    15   14   15 1
    16   14   33 1
    17   14   34 1
    18   15   16 1
    19   15   17 1
    20   15   35 1
    21   16   21 1
    22   17   18 1
    23   17   19 1
    24   17   36 1
    25   18   37 1
    26   19   20 1
    27   19   21 1
    28   19   38 1
    29   20   39 1
    30   21   22 1
    31   21   40 1
    32   22   23 ar
    33   22   31 ar
    34   23   24 ar
    35   23   41 1
    36   24   25 ar
    37   25   26 ar
    38   25   31 ar
    39   26   27 2
    40   26   28 ar
    41   27   42 1
    42   28   29 ar
    43   28   44 1
    44   29   30 ar
    45   29   43 1
    46   30   31 ar
@<TRIPOS>SUBSTRUCTURE
     1 ATP         1 GROUP 0 A     ****
@<TRIPOS>MOLECULE
[[[3,4-dihydroxy-5-(6-imino-1~{H}-purin-9-yl)tetrahydrofuran-2-yl]methoxy-oxido-phosphoryl]oxy-oxido-phosphoryl] hydrogen phosphate
   44    46     1     0     0
SMALL
USER_CHARGES

@<TRIPOS>ATOM
      1 PG          8.4810    6.6564    3.3419 P.3       1 ATP         1.5257
      2 O1G         8.3804    7.9723    2.6032 O.co2     1 ATP        -0.8737
      3 O2G         9.8134    5.9617    3.5144 O.co2     1 ATP        -0.8737
      4 O3G         7.7942    6.8333    4.8126 O.3       1 ATP        -0.7971
      5 PB          6.9938    4.1049    3.1930 P.3       1 ATP         1.6824
      6 O1B         8.1849    3.1874    3.0294 O.co2     1 ATP        -0.8925
      7 O2B         6.2680    4.2182    4.5151 O.co2     1 ATP        -0.8925
      8 O3B         7.4146    5.6024    2.6969 O.3       1 ATP        -0.8047
      9 PA          6.0980    3.6799    0.4052 P.3       1 ATP         1.5908
     10 O1A         7.0185    2.5227    0.0832 O.co2     1 ATP        -0.8932
     11 O2A         6.3952    5.0713   -0.1100 O.co2     1 ATP        -0.8932
     12 O3A         5.9053    3.7626    2.0257 O.3       1 ATP        -0.8088
     13 O5'         4.5670    3.2937   -0.0211 O.3       1 ATP        -0.5646
     14 C5'         4.0922    1.9801    0.2227 C.3       1 ATP         0.2204
     15 C4'         2.5944    2.0310    0.4653 C.3       1 ATP         0.0965
     16 O4'         1.9327    2.5740   -0.6889 O.3       1 ATP        -0.3907
     17 C3'         1.9685    0.6634    0.6767 C.3       1 ATP         0.0763
     18 O3'         2.1425    0.1975    1.9977 O.3       1 ATP        -0.5884
     19 C2'         0.5176    0.9128    0.3099 C.3       1 ATP         0.0784
     20 O2'        -0.2103    1.4454    1.4152 O.3       1 ATP        -0.6085
     21 C1'         0.6219    1.9765   -0.7844 C.3       1 ATP         0.2186
     22 N9          0.4237    1.4496   -2.1357 N.pl3     1 ATP        -0.1699
     23 C8          1.4069    0.9710   -2.9662 C.ar      1 ATP         0.4438
     24 N7          0.9316    0.5623   -4.1260 N.2       1 ATP        -0.6280
     25 C5         -0.4120    0.7884   -4.0344 C.ar      1 ATP         0.2109
     26 C6         -1.4353    0.5283   -5.0204 C.ar      1 ATP         0.6180
     27 N6         -1.1199    0.0176   -6.1586 N.2       1 ATP        -0.8319
     28 N1         -2.6704    0.9095   -4.5147 N.pl3     1 ATP        -0.8664
     29 C2         -2.8863    1.4571   -3.2520 C.ar      1 ATP         0.5952
     30 N3         -1.9805    1.7017   -2.3442 N.2       1 ATP        -0.5599
     31 C4         -0.7561    1.3381   -2.8112 C.ar      1 ATP         0.0076
     32 HOG3        7.7799    6.0609    5.4171 H         1 ATP         0.4101
     33 H5'1        4.3179    1.3548   -0.6470 H         1 ATP         0.0364
     34 H5'2        4.6083    1.5737    1.0983 H         1 ATP         0.0364
     35 H4'         2.3752    2.7029    1.3156 H         1 ATP         0.0945
     36 H3'         2.4336   -0.1217   -0.0015 H         1 ATP         0.0703
     37 HO3'        1.7160   -0.6716    2.0397 H         1 ATP         0.4099
     38 H2'         0.0316    0.0155   -0.0339 H         1 ATP         0.0676
     39 HO2'       -0.1608    0.7921    2.1351 H         1 ATP         0.4291
     40 H1'        -0.1474    2.7798   -0.6651 H         1 ATP         0.0950
     41 H8          2.4466    0.9468   -2.6694 H         1 ATP         0.1135
     42 HN62       -1.9661   -0.0965   -6.7275 H         1 ATP         0.3588
     43 H2         -3.9481    1.6825   -3.0660 H         1 ATP         0.0302
     44 H44        -3.4814    0.7753   -5.1133 H         1 ATP         0.4215
@<TRIPOS>BOND
     1    1    2 2
     2    1    3 1
     3    1    4 1
     4    1    8 1
     5    4   32 1
     6    5    6 2
     7    5    7 1
     8    5    8 1
     9    5   12 1
    10    9   10 2
    11    9   11 1
    12    9   12 1
    13    9   13 1
    14   13   14 1
    15   14   15 1
    16   14   33 1
    17   14   34 1
    18   15   16 1
    19   15   17 1
    20   15   35 1
    21   16   21 1
    22   17   18 1
    23   17   19 1
    24   17   36 1
    25   18   37 1
    26   19   20 1
    27   19   21 1
    28   19   38 1
    29   20   39 1
    30   21   22 1
    31   21   40 1
    32   22   23 ar
    33   22   31 ar
    34   23   24 ar
    35   23   41 1
    36   24   25 ar
    37   25   26 ar
    38   25   31 ar
    39   26   27 2
    40   26   28 ar
    41   27   42 1
    42   28   29 ar
    43   28   44 1
    44   29   30 ar
    45   29   43 1
    46   30   31 ar
@<TRIPOS>SUBSTRUCTURE
     1 ATP         1 GROUP 0 A     ****
@<TRIPOS>MOLECULE
[[[3,4-dihydroxy-5-(6-imino-1~{H}-purin-9-yl)tetrahydrofuran-2-yl]methoxy-oxido-phosphoryl]oxy-oxido-phosphoryl] hydrogen phosphate
   44    46     1     0     0
SMALL
USER_CHARGES

@<TRIPOS>ATOM
      1 PG          1.8039    8.1380    1.6005 P.3       1 ATP         1.5257
      2 O1G         3.2915    7.8789    1.5141 O.co2     1 ATP        -0.8737
      3 O2G         1.2616    9.2890    2.4182 O.co2     1 ATP        -0.8737
      4 O3G         1.2087    8.2534    0.0845 O.3       1 ATP        -0.7971
      5 PB          1.1193    5.9549    3.4737 P.3       1 ATP         1.6824
      6 O1B         2.5126    5.3918    3.6438 O.co2     1 ATP        -0.8925
      7 O2B         0.4815    6.8058    4.5492 O.co2     1 ATP        -0.8925
      8 O3B         1.0510    6.7638    2.0571 O.3       1 ATP        -0.8047
      9 PA         -1.4709    4.7755    2.6641 P.3       1 ATP         1.5908
     10 O1A        -1.5847    5.4670    1.3228 O.co2     1 ATP        -0.8932
     11 O2A        -2.2814    5.2504    3.8504 O.co2     1 ATP        -0.8932
     12 O3A         0.1029    4.7329    3.1013 O.3       1 ATP        -0.8088
     13 O5'        -1.7336    3.1724    2.4750 O.3       1 ATP        -0.5646
     14 C5'        -0.8811    2.4285    1.6206 C.3       1 ATP         0.2204
     15 C4'        -0.1994    1.3333    2.4288 C.3       1 ATP         0.0965
     16 O4'        -1.1285    0.2356    2.5840 O.3       1 ATP        -0.3907
     17 C3'         1.0324    0.7610    1.7344 C.3       1 ATP         0.0763
     18 O3'         1.9175    0.2377    2.7247 O.3       1 ATP        -0.5884
     19 C2'         0.4468   -0.3802    0.9263 C.3       1 ATP         0.0784
     20 O2'         1.3993   -1.3703    0.5961 O.3       1 ATP        -0.6085
     21 C1'        -0.6159   -0.9100    1.8769 C.3       1 ATP         0.2186
     22 N9         -1.7127   -1.6108    1.2130 N.pl3     1 ATP        -0.1699
     23 C8         -1.7690   -2.9583    0.9549 C.ar      1 ATP         0.4438
     24 N7         -2.8827   -3.3076    0.3418 N.2       1 ATP        -0.6280
     25 C5         -3.5683   -2.1351    0.2017 C.ar      1 ATP         0.2109
     26 C6         -4.8617   -1.9185   -0.4044 C.ar      1 ATP         0.6180
     27 N6         -5.5166   -2.9094   -0.8993 N.2       1 ATP        -0.8319
     28 N1         -5.1837   -0.5701   -0.3344 N.pl3     1 ATP        -0.8664
     29 C2         -4.3821    0.4180    0.2330 C.ar      1 ATP         0.5952
     30 N3         -3.2117    0.2488    0.7860 N.2       1 ATP        -0.5599
     31 C4         -2.8672   -1.0657    0.7327 C.ar      1 ATP         0.0076
     32 HOG3        0.2489    8.4218   -0.0287 H         1 ATP         0.4101
     33 H5'1       -1.4800    1.9927    0.8146 H         1 ATP         0.0364
     34 H5'2       -0.1367    3.1040    1.1872 H         1 ATP         0.0364
     35 H4'         0.0403    1.7078    3.4343 H         1 ATP         0.0945
     36 H3'         1.5907    1.4859    1.1353 H         1 ATP         0.0703
     37 HO3'        2.6839   -0.1150    2.2479 H         1 ATP         0.4099
     38 H2'        -0.0017    0.0018    0.0005 H         1 ATP         0.0676
     39 HO2'        2.0953   -0.9375    0.0709 H         1 ATP         0.4291
     40 H1'        -0.1998   -1.6319    2.6178 H         1 ATP         0.0950
     41 H8         -0.9697   -3.6300    1.2371 H         1 ATP         0.1135
     42 HN62       -6.4060   -2.5723   -1.2840 H         1 ATP         0.3588
     43 H2         -4.8409    1.4176    0.1757 H         1 ATP         0.0302
     44 H44        -6.0768   -0.2826   -0.7263 H         1 ATP         0.4215
@<TRIPOS>BOND
     1    1    2 2
     2    1    3 1
     3    1    4 1
     4    1    8 1
     5    4   32 1
     6    5    6 2
     7    5    7 1
     8    5    8 1
     9    5   12 1
    10    9   10 2
    11    9   11 1
    12    9   12 1
    13    9   13 1
    14   13   14 1
    15   14   15 1
    16   14   33 1
    17   14   34 1
    18   15   16 1
    19   15   17 1
    20   15   35 1
    21   16   21 1
    22   17   18 1
    23   17   19 1
    24   17   36 1
    25   18   37 1
    26   19   20 1
    27   19   21 1
    28   19   38 1
    29   20   39 1
    30   21   22 1
    31   21   40 1
    32   22   23 ar
    33   22   31 ar
    34   23   24 ar
    35   23   41 1
    36   24   25 ar
    37   25   26 ar
    38   25   31 ar
    39   26   27 2
    40   26   28 ar
    41   27   42 1
    42   28   29 ar
    43   28   44 1
    44   29   30 ar
    45   29   43 1
    46   30   31 ar
@<TRIPOS>SUBSTRUCTURE
     1 ATP         1 GROUP 0 A     ****
@<TRIPOS>MOLECULE
[[[3,4-dihydroxy-5-(6-imino-1~{H}-purin-9-yl)tetrahydrofuran-2-yl]methoxy-oxido-phosphoryl]oxy-oxido-phosphoryl] hydrogen phosphate
   44    46     1     0     0
SMALL
USER_CHARGES

@<TRIPOS>ATOM
      1 PG         -5.1127    6.4747    2.4531 P.3       1 ATP         1.5257
      2 O1G        -4.8897    6.2754    0.9705 O.co2     1 ATP        -0.8737
      3 O2G        -4.9877    7.8452    3.0806 O.co2     1 ATP        -0.8737
      4 O3G        -6.5716    5.8558    2.8460 O.3       1 ATP        -0.7971
      5 PB         -2.5441    5.3602    3.4038 P.3       1 ATP         1.6824
      6 O1B        -2.0359    6.7133    3.8491 O.co2     1 ATP        -0.8925
      7 O2B        -2.1674    4.0983    4.1476 O.co2     1 ATP        -0.8925
      8 O3B        -4.1705    5.4276    3.2774 O.3       1 ATP        -0.8047
      9 PA         -0.7385    5.0053    1.0867 P.3       1 ATP         1.5908
     10 O1A         0.1343    6.1787    1.4762 O.co2     1 ATP        -0.8932
     11 O2A        -0.9779    4.6690   -0.3691 O.co2     1 ATP        -0.8932
     12 O3A        -2.1887    5.1621    1.8228 O.3       1 ATP        -0.8088
     13 O5'        -0.2062    3.6557    1.8417 O.3       1 ATP        -0.5646
     14 C5'        -0.8811    2.4285    1.6206 C.3       1 ATP         0.2204
     15 C4'        -0.1994    1.3333    2.4288 C.3       1 ATP         0.0965
     16 O4'        -1.1285    0.2356    2.5840 O.3       1 ATP        -0.3907
     17 C3'         1.0324    0.7610    1.7344 C.3       1 ATP         0.0763
     18 O3'         1.9175    0.2377    2.7247 O.3       1 ATP        -0.5884
     19 C2'         0.4468   -0.3802    0.9263 C.3       1 ATP         0.0784
     20 O2'         1.3993   -1.3703    0.5961 O.3       1 ATP        -0.6085
     21 C1'        -0.6159   -0.9100    1.8769 C.3       1 ATP         0.2186
     22 N9         -1.7127   -1.6108    1.2130 N.pl3     1 ATP        -0.1699
     23 C8         -2.5485   -1.0808    0.2609 C.ar      1 ATP         0.4438
     24 N7         -3.4476   -1.9486   -0.1593 N.2       1 ATP        -0.6280
     25 C5         -3.1762   -3.0816    0.5530 C.ar      1 ATP         0.2109
     26 C6         -3.8510   -4.3579    0.5006 C.ar      1 ATP         0.6180
     27 N6         -4.8468   -4.5293   -0.2961 N.2       1 ATP        -0.8319
     28 N1         -3.2499   -5.2342    1.3937 N.pl3     1 ATP        -0.8664
     29 C2         -2.1646   -4.9275    2.2116 C.ar      1 ATP         0.5952
     30 N3         -1.5382   -3.7840    2.2778 N.2       1 ATP        -0.5599
     31 C4         -2.1054   -2.9018    1.4120 C.ar      1 ATP         0.0076
     32 HOG3       -6.7331    4.9019    2.6840 H         1 ATP         0.4101
     33 H5'1       -1.9256    2.5380    1.9293 H         1 ATP         0.0364
     34 H5'2       -0.8474    2.1930    0.5521 H         1 ATP         0.0364
     35 H4'         0.0403    1.7078    3.4343 H         1 ATP         0.0945
     36 H3'         1.5907    1.4859    1.1353 H         1 ATP         0.0703
     37 HO3'        2.6839   -0.1150    2.2479 H         1 ATP         0.4099
     38 H2'        -0.0017    0.0018    0.0005 H         1 ATP         0.0676
     39 HO2'        2.0953   -0.9375    0.0709 H         1 ATP         0.4291
     40 H1'        -0.1998   -1.6319    2.6178 H         1 ATP         0.0950
     41 H8         -2.4515   -0.0599   -0.0829 H         1 ATP         0.1135
     42 HN62       -5.1990   -5.4882   -0.2005 H         1 ATP         0.3588
     43 H2         -1.8555   -5.7783    2.8388 H         1 ATP         0.0302
     44 H44        -3.6312   -6.1750    1.4526 H         1 ATP         0.4215
@<TRIPOS>BOND
     1    1    2 2
     2    1    3 1
     3    1    4 1
     4    1    8 1
     5    4   32 1
     6    5    6 2
     7    5    7 1
     8    5    8 1
     9    5   12 1
    10    9   10 2
    11    9   11 1
    12    9   12 1
    13    9   13 1
    14   13   14 1
    15   14   15 1
    16   14   33 1
    17   14   34 1
    18   15   16 1
    19   15   17 1
    20   15   35 1
    21   16   21 1
    22   17   18 1
    23   17   19 1
    24   17   36 1
    25   18   37 1
    26   19   20 1
    27   19   21 1
    28   19   38 1
    29   20   39 1
    30   21   22 1
    31   21   40 1
    32   22   23 ar
    33   22   31 ar
    34   23   24 ar
    35   23   41 1
    36   24   25 ar
    37   25   26 ar
    38   25   31 ar
    39   26   27 2
    40   26   28 ar
    41   27   42 1
    42   28   29 ar
    43   28   44 1
    44   29   30 ar
    45   29   43 1
    46   30   31 ar
@<TRIPOS>SUBSTRUCTURE
     1 ATP         1 GROUP 0 A     ****
@<TRIPOS>MOLECULE
[[[3,4-dihydroxy-5-(6-imino-1~{H}-purin-9-yl)tetrahydrofuran-2-yl]methoxy-oxido-phosphoryl]oxy-oxido-phosphoryl] hydrogen phosphate
   44    46     1     0     0
SMALL
USER_CHARGES

@<TRIPOS>ATOM
      1 PG         -5.6735    5.8387   -0.6848 P.3       1 ATP         1.5257
      2 O1G        -5.4764    7.2145   -1.2812 O.co2     1 ATP        -0.8737
      3 O2G        -6.8392    5.5498    0.2346 O.co2     1 ATP        -0.8737
      4 O3G        -5.6857    4.7448   -1.8969 O.3       1 ATP        -0.7971
      5 PB         -3.5595    5.9834    1.3777 P.3       1 ATP         1.6824
      6 O1B        -3.0680    7.3789    1.0640 O.co2     1 ATP        -0.8925
      7 O2B        -4.4346    5.7132    2.5814 O.co2     1 ATP        -0.8925
      8 O3B        -4.2921    5.3759    0.0511 O.3       1 ATP        -0.8047
      9 PA         -1.0308    4.9148    2.4816 P.3       1 ATP         1.5908
     10 O1A        -1.5654    4.5278    3.8435 O.co2     1 ATP        -0.8932
     11 O2A        -0.1965    6.1647    2.3047 O.co2     1 ATP        -0.8932
     12 O3A        -2.2766    4.9752    1.4261 O.3       1 ATP        -0.8088
     13 O5'        -0.2062    3.6557    1.8417 O.3       1 ATP        -0.5646
     14 C5'        -0.8811    2.4285    1.6206 C.3       1 ATP         0.2204
     15 C4'        -0.1994    1.3333    2.4288 C.3       1 ATP         0.0965
     16 O4'        -1.1285    0.2356    2.5840 O.3       1 ATP        -0.3907
     17 C3'         1.0324    0.7610    1.7344 C.3       1 ATP         0.0763
     18 O3'         1.9175    0.2377    2.7247 O.3       1 ATP        -0.5884
     19 C2'         0.4468   -0.3802    0.9263 C.3       1 ATP         0.0784
     20 O2'         1.3993   -1.3703    0.5961 O.3       1 ATP        -0.6085
     21 C1'        -0.6159   -0.9100    1.8769 C.3       1 ATP         0.2186
     22 N9         -1.7127   -1.6108    1.2130 N.pl3     1 ATP        -0.1699
     23 C8         -2.0868   -2.9137    1.4327 C.ar      1 ATP         0.4438
     24 N7         -3.1125   -3.2756    0.6878 N.2       1 ATP        -0.6280
     25 C5         -3.4079   -2.1580   -0.0391 C.ar      1 ATP         0.2109
     26 C6         -4.4483   -1.9775   -1.0249 C.ar      1 ATP         0.6180
     27 N6         -5.2418   -2.9492   -1.3113 N.2       1 ATP        -0.8319
     28 N1         -4.3937   -0.6823   -1.5211 N.pl3     1 ATP        -0.8664
     29 C2         -3.4770    0.2901   -1.1271 C.ar      1 ATP         0.5952
     30 N3         -2.5289    0.1525   -0.2402 N.2       1 ATP        -0.5599
     31 C4         -2.5564   -1.1096    0.2655 C.ar      1 ATP         0.0076
     32 HOG3       -5.8056    3.7980   -1.6701 H         1 ATP         0.4101
     33 H5'1       -1.9256    2.5380    1.9293 H         1 ATP         0.0364
     34 H5'2       -0.8474    2.1930    0.5521 H         1 ATP         0.0364
     35 H4'         0.0403    1.7078    3.4343 H         1 ATP         0.0945
     36 H3'         1.5907    1.4859    1.1353 H         1 ATP         0.0703
     37 HO3'        2.6839   -0.1150    2.2479 H         1 ATP         0.4099
     38 H2'        -0.0017    0.0018    0.0005 H         1 ATP         0.0676
     39 HO2'        2.0953   -0.9375    0.0709 H         1 ATP         0.4291
     40 H1'        -0.1998   -1.6319    2.6178 H         1 ATP         0.0950
     41 H8         -1.5740   -3.5449    2.1457 H         1 ATP         0.1135
     42 HN62       -5.9117   -2.6433   -2.0256 H         1 ATP         0.3588
     43 H2         -3.6225    1.2454   -1.6553 H         1 ATP         0.0302
     44 H44        -5.0794   -0.4231   -2.2258 H         1 ATP         0.4215
@<TRIPOS>BOND
     1    1    2 2
     2    1    3 1
     3    1    4 1
     4    1    8 1
     5    4   32 1
     6    5    6 2
     7    5    7 1
     8    5    8 1
     9    5   12 1
    10    9   10 2
    11    9   11 1
    12    9   12 1
    13    9   13 1
    14   13   14 1
    15   14   15 1
    16   14   33 1
    17   14   34 1
    18   15   16 1
    19   15   17 1
    20   15   35 1
    21   16   21 1
    22   17   18 1
    23   17   19 1
    24   17   36 1
    25   18   37 1
    26   19   20 1
    27   19   21 1
    28   19   38 1
    29   20   39 1
    30   21   22 1
    31   21   40 1
    32   22   23 ar
    33   22   31 ar
    34   23   24 ar
    35   23   41 1
    36   24   25 ar
    37   25   26 ar
    38   25   31 ar
    39   26   27 2
    40   26   28 ar
    41   27   42 1
    42   28   29 ar
    43   28   44 1
    44   29   30 ar
    45   29   43 1
    46   30   31 ar
@<TRIPOS>SUBSTRUCTURE
     1 ATP         1 GROUP 0 A     ****
@<TRIPOS>MOLECULE
[[[3,4-dihydroxy-5-(6-imino-1~{H}-purin-9-yl)tetrahydrofuran-2-yl]methoxy-oxido-phosphoryl]oxy-oxido-phosphoryl] hydrogen phosphate
   44    46     1     0     0
SMALL
USER_CHARGES

@<TRIPOS>ATOM
      1 PG         -2.5110    4.9863    8.0749 P.3       1 ATP         1.5257
      2 O1G        -4.0167    5.0713    8.1891 O.co2     1 ATP        -0.8737
      3 O2G        -1.6447    6.2062    8.2964 O.co2     1 ATP        -0.8737
      4 O3G        -1.9832    3.7910    9.0539 O.3       1 ATP        -0.7971
      5 PB         -0.6704    3.8529    6.0572 P.3       1 ATP         1.6824
      6 O1B         0.1846    5.0834    5.8516 O.co2     1 ATP        -0.8925
      7 O2B        -0.1735    2.6813    6.8745 O.co2     1 ATP        -0.8925
      8 O3B        -2.1242    4.3168    6.6376 O.3       1 ATP        -0.8047
      9 PA         -1.9156    4.0918    3.3837 P.3       1 ATP         1.5908
     10 O1A        -0.9829    5.1484    2.8323 O.co2     1 ATP        -0.8932
     11 O2A        -3.3087    4.4562    3.8486 O.co2     1 ATP        -0.8932
     12 O3A        -1.1581    3.3049    4.5989 O.3       1 ATP        -0.8088
     13 O5'        -2.0401    2.8620    2.3128 O.3       1 ATP        -0.5646
     14 C5'        -0.8811    2.4285    1.6206 C.3       1 ATP         0.2204
     15 C4'        -0.1994    1.3333    2.4288 C.3       1 ATP         0.0965
     16 O4'        -1.1285    0.2356    2.5840 O.3       1 ATP        -0.3907
     17 C3'         1.0324    0.7610    1.7344 C.3       1 ATP         0.0763
     18 O3'         1.9175    0.2377    2.7247 O.3       1 ATP        -0.5884
     19 C2'         0.4468   -0.3802    0.9263 C.3       1 ATP         0.0784
     20 O2'         1.3993   -1.3703    0.5961 O.3       1 ATP        -0.6085
     21 C1'        -0.6159   -0.9100    1.8769 C.3       1 ATP         0.2186
     22 N9         -1.7127   -1.6108    1.2130 N.pl3     1 ATP        -0.1699
     23 C8         -2.8662   -1.0361    0.7388 C.ar      1 ATP         0.4438
     24 N7         -3.6774   -1.9166    0.1867 N.2       1 ATP        -0.6280
     25 C5         -3.0159   -3.1045    0.3122 C.ar      1 ATP         0.2109
     26 C6         -3.4377   -4.4169   -0.1199 C.ar      1 ATP         0.6180
     27 N6         -4.5720   -4.5691   -0.7080 N.2       1 ATP        -0.8319
     28 N1         -2.4600   -5.3463    0.2071 N.pl3     1 ATP        -0.8664
     29 C2         -1.2595   -5.0554    0.8515 C.ar      1 ATP         0.5952
     30 N3         -0.8555   -3.8803    1.2516 N.2       1 ATP        -0.5599
     31 C4         -1.7946   -2.9457    0.9448 C.ar      1 ATP         0.0076
     32 HOG3       -1.0199    3.6096    9.0918 H         1 ATP         0.4101
     33 H5'1       -1.1767    2.0502    0.6368 H         1 ATP         0.0364
     34 H5'2       -0.2080    3.2814    1.4876 H         1 ATP         0.0364
     35 H4'         0.0403    1.7078    3.4343 H         1 ATP         0.0945
     36 H3'         1.5907    1.4859    1.1353 H         1 ATP         0.0703
     37 HO3'        2.6839   -0.1150    2.2479 H         1 ATP         0.4099
     38 H2'        -0.0017    0.0018    0.0005 H         1 ATP         0.0676
     39 HO2'        2.0953   -0.9375    0.0709 H         1 ATP         0.4291
     40 H1'        -0.1998   -1.6319    2.6178 H         1 ATP         0.0950
     41 H8         -3.0558    0.0252    0.8256 H         1 ATP         0.1135
     42 HN62       -4.7047   -5.5592   -0.9421 H         1 ATP         0.3588
     43 H2         -0.6372   -5.9505    1.0077 H         1 ATP         0.0302
     44 H44        -2.6338   -6.3155   -0.0469 H         1 ATP         0.4215
@<TRIPOS>BOND
     1    1    2 2
     2    1    3 1
     3    1    4 1
     4    1    8 1
     5    4   32 1
     6    5    6 2
     7    5    7 1
     8    5    8 1
     9    5   12 1
    10    9   10 2
    11    9   11 1
    12    9   12 1
    13    9   13 1
    14   13   14 1
    15   14   15 1
    16   14   33 1
    17   14   34 1
    18   15   16 1
    19   15   17 1
    20   15   35 1
    21   16   21 1
    22   17   18 1
    23   17   19 1
    24   17   36 1
    25   18   37 1
    26   19   20 1
    27   19   21 1
    28   19   38 1
    29   20   39 1
    30   21   22 1
    31   21   40 1
    32   22   23 ar
    33   22   31 ar
    34   23   24 ar
    35   23   41 1
    36   24   25 ar
    37   25   26 ar
    38   25   31 ar
    39   26   27 2
    40   26   28 ar
    41   27   42 1
    42   28   29 ar
    43   28   44 1
    44   29   30 ar
    45   29   43 1
    46   30   31 ar
@<TRIPOS>SUBSTRUCTURE
     1 ATP         1 GROUP 0 A     ****
@<TRIPOS>MOLECULE
[[[3,4-dihydroxy-5-(6-imino-1~{H}-purin-9-yl)tetrahydrofuran-2-yl]methoxy-oxido-phosphoryl]oxy-oxido-phosphoryl] hydrogen phosphate
   44    46     1     0     0
SMALL
USER_CHARGES

@<TRIPOS>ATOM
      1 PG         -2.9196    6.9229    5.6643 P.3       1 ATP         1.5257
      2 O1G        -2.7091    6.0346    6.8701 O.co2     1 ATP        -0.8737
      3 O2G        -4.2972    7.4351    5.3072 O.co2     1 ATP        -0.8737
      4 O3G        -1.9054    8.1977    5.7759 O.3       1 ATP        -0.7971
      5 PB         -2.0719    6.7716    2.8355 P.3       1 ATP         1.6824
      6 O1B        -3.4355    6.9537    2.2072 O.co2     1 ATP        -0.8925
      7 O2B        -1.0665    7.9011    2.8665 O.co2     1 ATP        -0.8925
      8 O3B        -2.2668    6.2025    4.3533 O.3       1 ATP        -0.8047
      9 PA          0.0330    4.7083    2.5757 P.3       1 ATP         1.5908
     10 O1A        -0.1146    4.1098    3.9578 O.co2     1 ATP        -0.8932
     11 O2A         1.1815    5.6399    2.2548 O.co2     1 ATP        -0.8932
     12 O3A        -1.3630    5.4574    2.1758 O.3       1 ATP        -0.8088
     13 O5'         0.0178    3.5131    1.4595 O.3       1 ATP        -0.5646
     14 C5'        -0.8811    2.4285    1.6206 C.3       1 ATP         0.2204
     15 C4'        -0.1994    1.3333    2.4288 C.3       1 ATP         0.0965
     16 O4'        -1.1285    0.2356    2.5840 O.3       1 ATP        -0.3907
     17 C3'         1.0324    0.7610    1.7344 C.3       1 ATP         0.0763
     18 O3'         1.9175    0.2377    2.7247 O.3       1 ATP        -0.5884
     19 C2'         0.4468   -0.3802    0.9263 C.3       1 ATP         0.0784
     20 O2'         1.3993   -1.3703    0.5961 O.3       1 ATP        -0.6085
     21 C1'        -0.6159   -0.9100    1.8769 C.3       1 ATP         0.2186
     22 N9         -1.7127   -1.6108    1.2130 N.pl3     1 ATP        -0.1699
     23 C8         -2.5485   -1.0808    0.2609 C.ar      1 ATP         0.4438
     24 N7         -3.4476   -1.9486   -0.1593 N.2       1 ATP        -0.6280
     25 C5         -3.1762   -3.0816    0.5530 C.ar      1 ATP         0.2109
     26 C6         -3.8510   -4.3579    0.5006 C.ar      1 ATP         0.6180
     27 N6         -4.8468   -4.5293   -0.2961 N.2       1 ATP        -0.8319
     28 N1         -3.2499   -5.2342    1.3937 N.pl3     1 ATP        -0.8664
     29 C2         -2.1646   -4.9275    2.2116 C.ar      1 ATP         0.5952
     30 N3         -1.5382   -3.7840    2.2778 N.2       1 ATP        -0.5599
     31 C4         -2.1054   -2.9018    1.4120 C.ar      1 ATP         0.0076
     32 HOG3       -1.9216    8.8710    5.0627 H         1 ATP         0.4101
     33 H5'1       -1.7771    2.7849    2.1387 H         1 ATP         0.0364
     34 H5'2       -1.1654    2.0541    0.6320 H         1 ATP         0.0364
     35 H4'         0.0403    1.7078    3.4343 H         1 ATP         0.0945
     36 H3'         1.5907    1.4859    1.1353 H         1 ATP         0.0703
     37 HO3'        2.1521    0.9800    3.3017 H         1 ATP         0.4099
     38 H2'        -0.0017    0.0018    0.0005 H         1 ATP         0.0676
     39 HO2'        2.0953   -0.9375    0.0709 H         1 ATP         0.4291
     40 H1'        -0.1998   -1.6319    2.6178 H         1 ATP         0.0950
     41 H8         -2.4515   -0.0599   -0.0829 H         1 ATP         0.1135
     42 HN62       -5.1990   -5.4882   -0.2005 H         1 ATP         0.3588
     43 H2         -1.8555   -5.7783    2.8388 H         1 ATP         0.0302
     44 H44        -3.6312   -6.1750    1.4526 H         1 ATP         0.4215
@<TRIPOS>BOND
     1    1    2 2
     2    1    3 1
     3    1    4 1
     4    1    8 1
     5    4   32 1
     6    5    6 2
     7    5    7 1
     8    5    8 1
     9    5   12 1
    10    9   10 2
    11    9   11 1
    12    9   12 1
    13    9   13 1
    14   13   14 1
    15   14   15 1
    16   14   33 1
    17   14   34 1
    18   15   16 1
    19   15   17 1
    20   15   35 1
    21   16   21 1
    22   17   18 1
    23   17   19 1
    24   17   36 1
    25   18   37 1
    26   19   20 1
    27   19   21 1
    28   19   38 1
    29   20   39 1
    30   21   22 1
    31   21   40 1
    32   22   23 ar
    33   22   31 ar
    34   23   24 ar
    35   23   41 1
    36   24   25 ar
    37   25   26 ar
    38   25   31 ar
    39   26   27 2
    40   26   28 ar
    41   27   42 1
    42   28   29 ar
    43   28   44 1
    44   29   30 ar
    45   29   43 1
    46   30   31 ar
@<TRIPOS>SUBSTRUCTURE
     1 ATP         1 GROUP 0 A     ****
@<TRIPOS>MOLECULE
[[[3,4-dihydroxy-5-(6-imino-1~{H}-purin-9-yl)tetrahydrofuran-2-yl]methoxy-oxido-phosphoryl]oxy-oxido-phosphoryl] hydrogen phosphate
   44    46     1     0     0
SMALL
USER_CHARGES

@<TRIPOS>ATOM
      1 PG         10.3960    1.0853    0.6342 P.3       1 ATP         1.5257
      2 O1G        10.4813    0.5324   -0.7709 O.co2     1 ATP        -0.8737
      3 O2G        10.7794    0.2385    1.8274 O.co2     1 ATP        -0.8737
      4 O3G        11.2425    2.4802    0.6950 O.3       1 ATP        -0.7971
      5 PB          8.3074    2.5390    2.1403 P.3       1 ATP         1.6824
      6 O1B         8.2676    1.6350    3.3521 O.co2     1 ATP        -0.8925
      7 O2B         8.9954    3.8850    2.1892 O.co2     1 ATP        -0.8925
      8 O3B         8.9008    1.6936    0.8759 O.3       1 ATP        -0.8047
      9 PA          6.2486    3.4952    0.2423 P.3       1 ATP         1.5908
     10 O1A         6.7242    2.7153   -0.9643 O.co2     1 ATP        -0.8932
     11 O2A         6.5372    4.9751    0.3698 O.co2     1 ATP        -0.8932
     12 O3A         6.7835    2.7493    1.5941 O.3       1 ATP        -0.8088
     13 O5'         4.6405    3.2699    0.4378 O.3       1 ATP        -0.5646
     14 C5'         4.0922    1.9801    0.2227 C.3       1 ATP         0.2204
     15 C4'         2.5944    2.0310    0.4653 C.3       1 ATP         0.0965
     16 O4'         1.9327    2.5740   -0.6889 O.3       1 ATP        -0.3907
     17 C3'         1.9685    0.6634    0.6767 C.3       1 ATP         0.0763
     18 O3'         2.1425    0.1975    1.9977 O.3       1 ATP        -0.5884
     19 C2'         0.5176    0.9128    0.3099 C.3       1 ATP         0.0784
     20 O2'        -0.2103    1.4454    1.4152 O.3       1 ATP        -0.6085
     21 C1'         0.6219    1.9765   -0.7844 C.3       1 ATP         0.2186
     22 N9          0.4237    1.4496   -2.1357 N.pl3     1 ATP        -0.1699
     23 C8          1.4069    0.9710   -2.9662 C.ar      1 ATP         0.4438
     24 N7          0.9316    0.5623   -4.1260 N.2       1 ATP        -0.6280
     25 C5         -0.4120    0.7884   -4.0344 C.ar      1 ATP         0.2109
     26 C6         -1.4353    0.5283   -5.0204 C.ar      1 ATP         0.6180
     27 N6         -1.1199    0.0176   -6.1586 N.2       1 ATP        -0.8319
     28 N1         -2.6704    0.9095   -4.5147 N.pl3     1 ATP        -0.8664
     29 C2         -2.8863    1.4571   -3.2520 C.ar      1 ATP         0.5952
     30 N3         -1.9805    1.7017   -2.3442 N.2       1 ATP        -0.5599
     31 C4         -0.7561    1.3381   -2.8112 C.ar      1 ATP         0.0076
     32 HOG3       11.2834    2.9648    1.5469 H         1 ATP         0.4101
     33 H5'1        4.3028    1.6728   -0.8066 H         1 ATP         0.0364
     34 H5'2        4.5677    1.2738    0.9106 H         1 ATP         0.0364
     35 H4'         2.3752    2.7029    1.3156 H         1 ATP         0.0945
     36 H3'         2.4336   -0.1217   -0.0015 H         1 ATP         0.0703
     37 HO3'        3.0987    0.1465    2.1461 H         1 ATP         0.4099
     38 H2'         0.0316    0.0155   -0.0339 H         1 ATP         0.0676
     39 HO2'       -0.1608    0.7921    2.1351 H         1 ATP         0.4291
     40 H1'        -0.1474    2.7798   -0.6651 H         1 ATP         0.0950
     41 H8          2.4466    0.9468   -2.6694 H         1 ATP         0.1135
     42 HN62       -1.9661   -0.0965   -6.7275 H         1 ATP         0.3588
     43 H2         -3.9481    1.6825   -3.0660 H         1 ATP         0.0302
     44 H44        -3.4814    0.7753   -5.1133 H         1 ATP         0.4215
@<TRIPOS>BOND
     1    1    2 2
     2    1    3 1
     3    1    4 1
     4    1    8 1
     5    4   32 1
     6    5    6 2
     7    5    7 1
     8    5    8 1
     9    5   12 1
    10    9   10 2
    11    9   11 1
    12    9   12 1
    13    9   13 1
    14   13   14 1
    15   14   15 1
    16   14   33 1
    17   14   34 1
    18   15   16 1
    19   15   17 1
    20   15   35 1
    21   16   21 1
    22   17   18 1
    23   17   19 1
    24   17   36 1
    25   18   37 1
    26   19   20 1
    27   19   21 1
    28   19   38 1
    29   20   39 1
    30   21   22 1
    31   21   40 1
    32   22   23 ar
    33   22   31 ar
    34   23   24 ar
    35   23   41 1
    36   24   25 ar
    37   25   26 ar
    38   25   31 ar
    39   26   27 2
    40   26   28 ar
    41   27   42 1
    42   28   29 ar
    43   28   44 1
    44   29   30 ar
    45   29   43 1
    46   30   31 ar
@<TRIPOS>SUBSTRUCTURE
     1 ATP         1 GROUP 0 A     ****
@<TRIPOS>MOLECULE
[[[3,4-dihydroxy-5-(6-imino-1~{H}-purin-9-yl)tetrahydrofuran-2-yl]methoxy-oxido-phosphoryl]oxy-oxido-phosphoryl] hydrogen phosphate
   44    46     1     0     0
SMALL
USER_CHARGES

@<TRIPOS>ATOM
      1 PG         10.4373    1.6103    0.7795 P.3       1 ATP         1.5257
      2 O1G        10.7525    0.9266    2.0913 O.co2     1 ATP        -0.8737
      3 O2G        11.3461    2.6846    0.2249 O.co2     1 ATP        -0.8737
      4 O3G        10.2298    0.4649   -0.3655 O.3       1 ATP        -0.7971
      5 PB          8.2727    3.3750    1.7508 P.3       1 ATP         1.6824
      6 O1B         8.2866    2.9327    3.1970 O.co2     1 ATP        -0.8925
      7 O2B         8.8834    4.6928    1.3287 O.co2     1 ATP        -0.8925
      8 O3B         8.9106    2.1847    0.8333 O.3       1 ATP        -0.8047
      9 PA          6.1593    3.5241   -0.3148 P.3       1 ATP         1.5908
     10 O1A         6.6760    2.4087   -1.1975 O.co2     1 ATP        -0.8932
     11 O2A         6.3639    4.9731   -0.6998 O.co2     1 ATP        -0.8932
     12 O3A         6.7382    3.3079    1.1978 O.3       1 ATP        -0.8088
     13 O5'         4.5670    3.2937   -0.0211 O.3       1 ATP        -0.5646
     14 C5'         4.0922    1.9801    0.2227 C.3       1 ATP         0.2204
     15 C4'         2.5944    2.0310    0.4653 C.3       1 ATP         0.0965
     16 O4'         1.9327    2.5740   -0.6889 O.3       1 ATP        -0.3907
     17 C3'         1.9685    0.6634    0.6767 C.3       1 ATP         0.0763
     18 O3'         2.1425    0.1975    1.9977 O.3       1 ATP        -0.5884
     19 C2'         0.5176    0.9128    0.3099 C.3       1 ATP         0.0784
     20 O2'        -0.2103    1.4454    1.4152 O.3       1 ATP        -0.6085
     21 C1'         0.6219    1.9765   -0.7844 C.3       1 ATP         0.2186
     22 N9          0.4237    1.4496   -2.1357 N.pl3     1 ATP        -0.1699
     23 C8         -0.7779    1.3483   -2.7928 C.ar      1 ATP         0.4438
     24 N7         -0.6499    0.8341   -3.9999 N.2       1 ATP        -0.6280
     25 C5          0.6893    0.5965   -4.1212 C.ar      1 ATP         0.2109
     26 C6          1.4031    0.0342   -5.2443 C.ar      1 ATP         0.6180
     27 N6          0.7649   -0.3130   -6.3063 N.2       1 ATP        -0.8319
     28 N1          2.7566   -0.0326   -4.9437 N.pl3     1 ATP        -0.8664
     29 C2          3.3337    0.3796   -3.7446 C.ar      1 ATP         0.5952
     30 N3          2.7120    0.8899   -2.7163 N.2       1 ATP        -0.5599
     31 C4          1.3803    0.9684   -2.9805 C.ar      1 ATP         0.0076
     32 HOG3       10.0176    0.7514   -1.2794 H         1 ATP         0.4101
     33 H5'1        4.3179    1.3548   -0.6470 H         1 ATP         0.0364
     34 H5'2        4.6083    1.5737    1.0983 H         1 ATP         0.0364
     35 H4'         2.3752    2.7029    1.3156 H         1 ATP         0.0945
     36 H3'         2.4336   -0.1217   -0.0015 H         1 ATP         0.0703
     37 HO3'        1.7160   -0.6716    2.0397 H         1 ATP         0.4099
     38 H2'         0.0316    0.0155   -0.0339 H         1 ATP         0.0676
     39 HO2'       -0.1608    0.7921    2.1351 H         1 ATP         0.4291
     40 H1'        -0.1474    2.7798   -0.6651 H         1 ATP         0.0950
     41 H8         -1.7076    1.6648   -2.3398 H         1 ATP         0.1135
     42 HN62        1.4266   -0.6890   -6.9943 H         1 ATP         0.3588
     43 H2          4.4251    0.2326   -3.7294 H         1 ATP         0.0302
     44 H44         3.3750   -0.4100   -5.6572 H         1 ATP         0.4215
@<TRIPOS>BOND
     1    1    2 2
     2    1    3 1
     3    1    4 1
     4    1    8 1
     5    4   32 1
     6    5    6 2
     7    5    7 1
     8    5    8 1
     9    5   12 1
    10    9   10 2
    11    9   11 1
    12    9   12 1
    13    9   13 1
    14   13   14 1
    15   14   15 1
    16   14   33 1
    17   14   34 1
    18   15   16 1
    19   15   17 1
    20   15   35 1
    21   16   21 1
    22   17   18 1
    23   17   19 1
    24   17   36 1
    25   18   37 1
    26   19   20 1
    27   19   21 1
    28   19   38 1
    29   20   39 1
    30   21   22 1
    31   21   40 1
    32   22   23 ar
    33   22   31 ar
    34   23   24 ar
    35   23   41 1
    36   24   25 ar
    37   25   26 ar
    38   25   31 ar
    39   26   27 2
    40   26   28 ar
    41   27   42 1
    42   28   29 ar
    43   28   44 1
    44   29   30 ar
    45   29   43 1
    46   30   31 ar
@<TRIPOS>SUBSTRUCTURE
     1 ATP         1 GROUP 0 A     ****
@<TRIPOS>MOLECULE
[[[3,4-dihydroxy-5-(6-imino-1~{H}-purin-9-yl)tetrahydrofuran-2-yl]methoxy-oxido-phosphoryl]oxy-oxido-phosphoryl] hydrogen phosphate
   44    46     1     0     0
SMALL
USER_CHARGES

@<TRIPOS>ATOM
      1 PG          9.9952    0.0239    1.2886 P.3       1 ATP         1.5257
      2 O1G        10.6867    1.1896    1.9596 O.co2     1 ATP        -0.8737
      3 O2G        10.7388   -0.8674    0.3188 O.co2     1 ATP        -0.8737
      4 O3G         9.3219   -0.9142    2.4430 O.3       1 ATP        -0.7971
      5 PB          8.4345    1.5643   -0.6951 P.3       1 ATP         1.6824
      6 O1B         8.9082    2.9440   -0.2959 O.co2     1 ATP        -0.8925
      7 O2B         8.9628    0.8839   -1.9383 O.co2     1 ATP        -0.8925
      8 O3B         8.6275    0.5567    0.5750 O.3       1 ATP        -0.8047
      9 PA          5.7602    0.3298   -0.9771 P.3       1 ATP         1.5908
     10 O1A         5.8573   -0.6085    0.2063 O.co2     1 ATP        -0.8932
     11 O2A         5.9309   -0.1861   -2.3893 O.co2     1 ATP        -0.8932
     12 O3A         6.8031    1.5675   -0.7530 O.3       1 ATP        -0.8088
     13 O5'         4.3516    1.1575   -0.9026 O.3       1 ATP        -0.5646
     14 C5'         4.0922    1.9801    0.2227 C.3       1 ATP         0.2204
     15 C4'         2.5944    2.0310    0.4653 C.3       1 ATP         0.0965
     16 O4'         1.9327    2.5740   -0.6889 O.3       1 ATP        -0.3907
     17 C3'         1.9685    0.6634    0.6767 C.3       1 ATP         0.0763
     18 O3'         2.1425    0.1975    1.9977 O.3       1 ATP        -0.5884
     19 C2'         0.5176    0.9128    0.3099 C.3       1 ATP         0.0784
     20 O2'        -0.2103    1.4454    1.4152 O.3       1 ATP        -0.6085
     21 C1'         0.6219    1.9765   -0.7844 C.3       1 ATP         0.2186
     22 N9          0.4237    1.4496   -2.1357 N.pl3     1 ATP        -0.1699
     23 C8          1.4069    0.9710   -2.9662 C.ar      1 ATP         0.4438
     24 N7          0.9316    0.5623   -4.1260 N.2       1 ATP        -0.6280
     25 C5         -0.4120    0.7884   -4.0344 C.ar      1 ATP         0.2109
     26 C6         -1.4353    0.5283   -5.0204 C.ar      1 ATP         0.6180
     27 N6         -1.1199    0.0176   -6.1586 N.2       1 ATP        -0.8319
     28 N1         -2.6704    0.9095   -4.5147 N.pl3     1 ATP        -0.8664
     29 C2         -2.8863    1.4571   -3.2520 C.ar      1 ATP         0.5952
     30 N3         -1.9805    1.7017   -2.3442 N.2       1 ATP        -0.5599
     31 C4         -0.7561    1.3381   -2.8112 C.ar      1 ATP         0.0076
     32 HOG3        8.8325   -1.7176    2.1651 H         1 ATP         0.4101
     33 H5'1        4.6069    1.5618    1.0936 H         1 ATP         0.0364
     34 H5'2        4.4824    2.9837    0.0254 H         1 ATP         0.0364
     35 H4'         2.3752    2.7029    1.3156 H         1 ATP         0.0945
     36 H3'         2.4336   -0.1217   -0.0015 H         1 ATP         0.0703
     37 HO3'        1.7160   -0.6716    2.0397 H         1 ATP         0.4099
     38 H2'         0.0316    0.0155   -0.0339 H         1 ATP         0.0676
     39 HO2'       -0.1608    0.7921    2.1351 H         1 ATP         0.4291
     40 H1'        -0.1474    2.7798   -0.6651 H         1 ATP         0.0950
     41 H8          2.4466    0.9468   -2.6694 H         1 ATP         0.1135
     42 HN62       -1.9661   -0.0965   -6.7275 H         1 ATP         0.3588
     43 H2         -3.9481    1.6825   -3.0660 H         1 ATP         0.0302
     44 H44        -3.4814    0.7753   -5.1133 H         1 ATP         0.4215
@<TRIPOS>BOND
     1    1    2 2
     2    1    3 1
     3    1    4 1
     4    1    8 1
     5    4   32 1
     6    5    6 2
     7    5    7 1
     8    5    8 1
     9    5   12 1
    10    9   10 2
    11    9   11 1
    12    9   12 1
    13    9   13 1
    14   13   14 1
    15   14   15 1
    16   14   33 1
    17   14   34 1
    18   15   16 1
    19   15   17 1
    20   15   35 1
    21   16   21 1
    22   17   18 1
    23   17   19 1
    24   17   36 1
    25   18   37 1
    26   19   20 1
    27   19   21 1
    28   19   38 1
    29   20   39 1
    30   21   22 1
    31   21   40 1
    32   22   23 ar
    33   22   31 ar
    34   23   24 ar
    35   23   41 1
    36   24   25 ar
    37   25   26 ar
    38   25   31 ar
    39   26   27 2
    40   26   28 ar
    41   27   42 1
    42   28   29 ar
    43   28   44 1
    44   29   30 ar
    45   29   43 1
    46   30   31 ar
@<TRIPOS>SUBSTRUCTURE
     1 ATP         1 GROUP 0 A     ****
@<TRIPOS>MOLECULE
[[[3,4-dihydroxy-5-(6-imino-1~{H}-purin-9-yl)tetrahydrofuran-2-yl]methoxy-oxido-phosphoryl]oxy-oxido-phosphoryl] hydrogen phosphate
   44    46     1     0     0
SMALL
USER_CHARGES

@<TRIPOS>ATOM
      1 PG          8.7323    0.3595   -0.6254 P.3       1 ATP         1.5257
      2 O1G         7.7578    0.0613   -1.7428 O.co2     1 ATP        -0.8737
      3 O2G         8.5292   -0.2177    0.7579 O.co2     1 ATP        -0.8737
      4 O3G        10.2360   -0.0254   -1.1321 O.3       1 ATP        -0.7971
      5 PB          7.8505    3.1212   -0.0432 P.3       1 ATP         1.6824
      6 O1B         7.2694    2.7328    1.2980 O.co2     1 ATP        -0.8925
      7 O2B         8.4731    4.4820   -0.2628 O.co2     1 ATP        -0.8925
      8 O3B         8.9201    1.9760   -0.5016 O.3       1 ATP        -0.8047
      9 PA          5.2953    3.6262   -1.4472 P.3       1 ATP         1.5908
     10 O1A         4.5607    2.9193   -2.5657 O.co2     1 ATP        -0.8932
     11 O2A         5.5518    5.1161   -1.5107 O.co2     1 ATP        -0.8932
     12 O3A         6.7215    2.8698   -1.1952 O.3       1 ATP        -0.8088
     13 O5'         4.5670    3.2937   -0.0211 O.3       1 ATP        -0.5646
     14 C5'         4.0922    1.9801    0.2227 C.3       1 ATP         0.2204
     15 C4'         2.5944    2.0310    0.4653 C.3       1 ATP         0.0965
     16 O4'         1.9327    2.5740   -0.6889 O.3       1 ATP        -0.3907
     17 C3'         1.9685    0.6634    0.6767 C.3       1 ATP         0.0763
     18 O3'         2.1425    0.1975    1.9977 O.3       1 ATP        -0.5884
     19 C2'         0.5176    0.9128    0.3099 C.3       1 ATP         0.0784
     20 O2'        -0.2103    1.4454    1.4152 O.3       1 ATP        -0.6085
     21 C1'         0.6219    1.9765   -0.7844 C.3       1 ATP         0.2186
     22 N9          0.4237    1.4496   -2.1357 N.pl3     1 ATP        -0.1699
     23 C8          1.4069    0.9710   -2.9662 C.ar      1 ATP         0.4438
     24 N7          0.9316    0.5623   -4.1260 N.2       1 ATP        -0.6280
     25 C5         -0.4120    0.7884   -4.0344 C.ar      1 ATP         0.2109
     26 C6         -1.4353    0.5283   -5.0204 C.ar      1 ATP         0.6180
     27 N6         -1.1199    0.0176   -6.1586 N.2       1 ATP        -0.8319
     28 N1         -2.6704    0.9095   -4.5147 N.pl3     1 ATP        -0.8664
     29 C2         -2.8863    1.4571   -3.2520 C.ar      1 ATP         0.5952
     30 N3         -1.9805    1.7017   -2.3442 N.2       1 ATP        -0.5599
     31 C4         -0.7561    1.3381   -2.8112 C.ar      1 ATP         0.0076
     32 HOG3       10.9861    0.1121   -0.5150 H         1 ATP         0.4101
     33 H5'1        4.3179    1.3548   -0.6470 H         1 ATP         0.0364
     34 H5'2        4.6083    1.5737    1.0983 H         1 ATP         0.0364
     35 H4'         2.3752    2.7029    1.3156 H         1 ATP         0.0945
     36 H3'         2.4336   -0.1217   -0.0015 H         1 ATP         0.0703
     37 HO3'        1.7160   -0.6716    2.0397 H         1 ATP         0.4099
     38 H2'         0.0316    0.0155   -0.0339 H         1 ATP         0.0676
     39 HO2'       -1.1270    1.5823    1.1180 H         1 ATP         0.4291
     40 H1'        -0.1474    2.7798   -0.6651 H         1 ATP         0.0950
     41 H8          2.4466    0.9468   -2.6694 H         1 ATP         0.1135
     42 HN62       -1.9661   -0.0965   -6.7275 H         1 ATP         0.3588
     43 H2         -3.9481    1.6825   -3.0660 H         1 ATP         0.0302
     44 H44        -3.4814    0.7753   -5.1133 H         1 ATP         0.4215
@<TRIPOS>BOND
     1    1    2 2
     2    1    3 1
     3    1    4 1
     4    1    8 1
     5    4   32 1
     6    5    6 2
     7    5    7 1
     8    5    8 1
     9    5   12 1
    10    9   10 2
    11    9   11 1
    12    9   12 1
    13    9   13 1
    14   13   14 1
    15   14   15 1
    16   14   33 1
    17   14   34 1
    18   15   16 1
    19   15   17 1
    20   15   35 1
    21   16   21 1
    22   17   18 1
    23   17   19 1
    24   17   36 1
    25   18   37 1
    26   19   20 1
    27   19   21 1
    28   19   38 1
    29   20   39 1
    30   21   22 1
    31   21   40 1
    32   22   23 ar
    33   22   31 ar
    34   23   24 ar
    35   23   41 1
    36   24   25 ar
    37   25   26 ar
    38   25   31 ar
    39   26   27 2
    40   26   28 ar
    41   27   42 1
    42   28   29 ar
    43   28   44 1
    44   29   30 ar
    45   29   43 1
    46   30   31 ar
@<TRIPOS>SUBSTRUCTURE
     1 ATP         1 GROUP 0 A     ****
@<TRIPOS>MOLECULE
[[[3,4-dihydroxy-5-(6-imino-1~{H}-purin-9-yl)tetrahydrofuran-2-yl]methoxy-oxido-phosphoryl]oxy-oxido-phosphoryl] hydrogen phosphate
   44    46     1     0     0
SMALL
USER_CHARGES

@<TRIPOS>ATOM
      1 PG          1.0622    6.7886    0.8982 P.3       1 ATP         1.5257
      2 O1G         1.1562    5.4755    1.6426 O.co2     1 ATP        -0.8737
      3 O2G         0.1050    7.8701    1.3476 O.co2     1 ATP        -0.8737
      4 O3G         2.5588    7.4326    0.7913 O.3       1 ATP        -0.7971
      5 PB         -0.4831    5.8253   -1.4315 P.3       1 ATP         1.6824
      6 O1B        -1.7213    6.5909   -1.0215 O.co2     1 ATP        -0.8925
      7 O2B        -0.1436    5.6075   -2.8892 O.co2     1 ATP        -0.8925
      8 O3B         0.8109    6.4846   -0.6855 O.3       1 ATP        -0.8047
      9 PA         -1.4929    3.1051   -0.8519 P.3       1 ATP         1.5908
     10 O1A        -1.3127    2.5343   -2.2419 O.co2     1 ATP        -0.8932
     11 O2A        -2.8635    3.5075   -0.3526 O.co2     1 ATP        -0.8932
     12 O3A        -0.4865    4.3798   -0.6730 O.3       1 ATP        -0.8088
     13 O5'        -0.8277    2.0903    0.2447 O.3       1 ATP        -0.5646
     14 C5'        -0.8811    2.4285    1.6206 C.3       1 ATP         0.2204
     15 C4'        -0.1994    1.3333    2.4288 C.3       1 ATP         0.0965
     16 O4'        -1.1285    0.2356    2.5840 O.3       1 ATP        -0.3907
     17 C3'         1.0324    0.7610    1.7344 C.3       1 ATP         0.0763
     18 O3'         1.9175    0.2377    2.7247 O.3       1 ATP        -0.5884
     19 C2'         0.4468   -0.3802    0.9263 C.3       1 ATP         0.0784
     20 O2'         1.3993   -1.3703    0.5961 O.3       1 ATP        -0.6085
     21 C1'        -0.6159   -0.9100    1.8769 C.3       1 ATP         0.2186
     22 N9         -1.7127   -1.6108    1.2130 N.pl3     1 ATP        -0.1699
     23 C8         -2.8662   -1.0361    0.7388 C.ar      1 ATP         0.4438
     24 N7         -3.6774   -1.9166    0.1867 N.2       1 ATP        -0.6280
     25 C5         -3.0159   -3.1045    0.3122 C.ar      1 ATP         0.2109
     26 C6         -3.4377   -4.4169   -0.1199 C.ar      1 ATP         0.6180
     27 N6         -4.5720   -4.5691   -0.7080 N.2       1 ATP        -0.8319
     28 N1         -2.4600   -5.3463    0.2071 N.pl3     1 ATP        -0.8664
     29 C2         -1.2595   -5.0554    0.8515 C.ar      1 ATP         0.5952
     30 N3         -0.8555   -3.8803    1.2516 N.2       1 ATP        -0.5599
     31 C4         -1.7946   -2.9457    0.9448 C.ar      1 ATP         0.0076
     32 HOG3        2.6652    8.2927    0.3319 H         1 ATP         0.4101
     33 H5'1       -0.3731    3.3866    1.7699 H         1 ATP         0.0364
     34 H5'2       -1.9291    2.5295    1.9203 H         1 ATP         0.0364
     35 H4'         0.0403    1.7078    3.4343 H         1 ATP         0.0945
     36 H3'         1.5907    1.4859    1.1353 H         1 ATP         0.0703
     37 HO3'        2.6839   -0.1150    2.2479 H         1 ATP         0.4099
     38 H2'        -0.0017    0.0018    0.0005 H         1 ATP         0.0676
     39 HO2'        2.0953   -0.9375    0.0709 H         1 ATP         0.4291
     40 H1'        -0.1998   -1.6319    2.6178 H         1 ATP         0.0950
     41 H8         -3.0558    0.0252    0.8256 H         1 ATP         0.1135
     42 HN62       -4.7047   -5.5592   -0.9421 H         1 ATP         0.3588
     43 H2         -0.6372   -5.9505    1.0077 H         1 ATP         0.0302
     44 H44        -2.6338   -6.3155   -0.0469 H         1 ATP         0.4215
@<TRIPOS>BOND
     1    1    2 2
     2    1    3 1
     3    1    4 1
     4    1    8 1
     5    4   32 1
     6    5    6 2
     7    5    7 1
     8    5    8 1
     9    5   12 1
    10    9   10 2
    11    9   11 1
    12    9   12 1
    13    9   13 1
    14   13   14 1
    15   14   15 1
    16   14   33 1
    17   14   34 1
    18   15   16 1
    19   15   17 1
    20   15   35 1
    21   16   21 1
    22   17   18 1
    23   17   19 1
    24   17   36 1
    25   18   37 1
    26   19   20 1
    27   19   21 1
    28   19   38 1
    29   20   39 1
    30   21   22 1
    31   21   40 1
    32   22   23 ar
    33   22   31 ar
    34   23   24 ar
    35   23   41 1
    36   24   25 ar
    37   25   26 ar
    38   25   31 ar
    39   26   27 2
    40   26   28 ar
    41   27   42 1
    42   28   29 ar
    43   28   44 1
    44   29   30 ar
    45   29   43 1
    46   30   31 ar
@<TRIPOS>SUBSTRUCTURE
     1 ATP         1 GROUP 0 A     ****
@<TRIPOS>MOLECULE
[[[3,4-dihydroxy-5-(6-imino-1~{H}-purin-9-yl)tetrahydrofuran-2-yl]methoxy-oxido-phosphoryl]oxy-oxido-phosphoryl] hydrogen phosphate
   44    46     1     0     0
SMALL
USER_CHARGES

@<TRIPOS>ATOM
      1 PG         -0.7603    8.3380    1.4357 P.3       1 ATP         1.5257
      2 O1G         0.1036    7.8511    2.5777 O.co2     1 ATP        -0.8737
      3 O2G        -1.8967    9.3061    1.6787 O.co2     1 ATP        -0.8737
      4 O3G         0.2106    8.9583    0.2787 O.3       1 ATP        -0.7971
      5 PB         -2.3833    5.8917    1.0822 P.3       1 ATP         1.6824
      6 O1B        -3.6377    6.5589    1.6006 O.co2     1 ATP        -0.8925
      7 O2B        -2.4477    4.8304    0.0066 O.co2     1 ATP        -0.8925
      8 O3B        -1.3306    7.0485    0.6138 O.3       1 ATP        -0.8047
      9 PA         -1.9156    4.0918    3.3837 P.3       1 ATP         1.5908
     10 O1A        -3.2735    4.3719    3.9903 O.co2     1 ATP        -0.8932
     11 O2A        -0.7136    3.8310    4.2651 O.co2     1 ATP        -0.8932
     12 O3A        -1.5422    5.3014    2.3507 O.3       1 ATP        -0.8088
     13 O5'        -2.0401    2.8620    2.3128 O.3       1 ATP        -0.5646
     14 C5'        -0.8811    2.4285    1.6206 C.3       1 ATP         0.2204
     15 C4'        -0.1994    1.3333    2.4288 C.3       1 ATP         0.0965
     16 O4'        -1.1285    0.2356    2.5840 O.3       1 ATP        -0.3907
     17 C3'         1.0324    0.7610    1.7344 C.3       1 ATP         0.0763
     18 O3'         1.9175    0.2377    2.7247 O.3       1 ATP        -0.5884
     19 C2'         0.4468   -0.3802    0.9263 C.3       1 ATP         0.0784
     20 O2'         1.3993   -1.3703    0.5961 O.3       1 ATP        -0.6085
     21 C1'        -0.6159   -0.9100    1.8769 C.3       1 ATP         0.2186
     22 N9         -1.7127   -1.6108    1.2130 N.pl3     1 ATP        -0.1699
     23 C8         -1.7690   -2.9583    0.9549 C.ar      1 ATP         0.4438
     24 N7         -2.8827   -3.3076    0.3418 N.2       1 ATP        -0.6280
     25 C5         -3.5683   -2.1351    0.2017 C.ar      1 ATP         0.2109
     26 C6         -4.8617   -1.9185   -0.4044 C.ar      1 ATP         0.6180
     27 N6         -5.5166   -2.9094   -0.8993 N.2       1 ATP        -0.8319
     28 N1         -5.1837   -0.5701   -0.3344 N.pl3     1 ATP        -0.8664
     29 C2         -4.3821    0.4180    0.2330 C.ar      1 ATP         0.5952
     30 N3         -3.2117    0.2488    0.7860 N.2       1 ATP        -0.5599
     31 C4         -2.8672   -1.0657    0.7327 C.ar      1 ATP         0.0076
     32 HOG3       -0.2033    9.3187   -0.5343 H         1 ATP         0.4101
     33 H5'1       -1.1767    2.0502    0.6368 H         1 ATP         0.0364
     34 H5'2       -0.2080    3.2814    1.4876 H         1 ATP         0.0364
     35 H4'         0.0403    1.7078    3.4343 H         1 ATP         0.0945
     36 H3'         1.5907    1.4859    1.1353 H         1 ATP         0.0703
     37 HO3'        2.1521    0.9800    3.3017 H         1 ATP         0.4099
     38 H2'        -0.0017    0.0018    0.0005 H         1 ATP         0.0676
     39 HO2'        1.7495   -1.7243    1.4324 H         1 ATP         0.4291
     40 H1'        -0.1998   -1.6319    2.6178 H         1 ATP         0.0950
     41 H8         -0.9697   -3.6300    1.2371 H         1 ATP         0.1135
     42 HN62       -6.4060   -2.5723   -1.2840 H         1 ATP         0.3588
     43 H2         -4.8409    1.4176    0.1757 H         1 ATP         0.0302
     44 H44        -6.0768   -0.2826   -0.7263 H         1 ATP         0.4215
@<TRIPOS>BOND
     1    1    2 2
     2    1    3 1
     3    1    4 1
     4    1    8 1
     5    4   32 1
     6    5    6 2
     7    5    7 1
     8    5    8 1
     9    5   12 1
    10    9   10 2
    11    9   11 1
    12    9   12 1
    13    9   13 1
    14   13   14 1
    15   14   15 1
    16   14   33 1
    17   14   34 1
    18   15   16 1
    19   15   17 1
    20   15   35 1
    21   16   21 1
    22   17   18 1
    23   17   19 1
    24   17   36 1
    25   18   37 1
    26   19   20 1
    27   19   21 1
    28   19   38 1
    29   20   39 1
    30   21   22 1
    31   21   40 1
    32   22   23 ar
    33   22   31 ar
    34   23   24 ar
    35   23   41 1
    36   24   25 ar
    37   25   26 ar
    38   25   31 ar
    39   26   27 2
    40   26   28 ar
    41   27   42 1
    42   28   29 ar
    43   28   44 1
    44   29   30 ar
    45   29   43 1
    46   30   31 ar
@<TRIPOS>SUBSTRUCTURE
     1 ATP         1 GROUP 0 A     ****
@<TRIPOS>MOLECULE
[[[3,4-dihydroxy-5-(6-imino-1~{H}-purin-9-yl)tetrahydrofuran-2-yl]methoxy-oxido-phosphoryl]oxy-oxido-phosphoryl] hydrogen phosphate
   44    46     1     0     0
SMALL
USER_CHARGES

@<TRIPOS>ATOM
      1 PG          9.5492    5.0592   -3.1829 P.3       1 ATP         1.5257
      2 O1G         9.3120    4.8366   -4.6599 O.co2     1 ATP        -0.8737
      3 O2G        10.8810    4.7220   -2.5500 O.co2     1 ATP        -0.8737
      4 O3G         9.1840    6.6103   -2.8269 O.3       1 ATP        -0.7971
      5 PB          8.0229    2.7372   -2.1717 P.3       1 ATP         1.6824
      6 O1B         7.5719    2.1952   -3.5097 O.co2     1 ATP        -0.8925
      7 O2B         9.1449    2.0808   -1.3985 O.co2     1 ATP        -0.8925
      8 O3B         8.3611    4.3258   -2.3376 O.3       1 ATP        -0.8047
      9 PA          5.2953    3.6262   -1.4472 P.3       1 ATP         1.5908
     10 O1A         4.5607    2.9193   -2.5657 O.co2     1 ATP        -0.8932
     11 O2A         5.5518    5.1161   -1.5107 O.co2     1 ATP        -0.8932
     12 O3A         6.7215    2.8698   -1.1952 O.3       1 ATP        -0.8088
     13 O5'         4.5670    3.2937   -0.0211 O.3       1 ATP        -0.5646
     14 C5'         4.0922    1.9801    0.2227 C.3       1 ATP         0.2204
     15 C4'         2.5944    2.0310    0.4653 C.3       1 ATP         0.0965
     16 O4'         1.9327    2.5740   -0.6889 O.3       1 ATP        -0.3907
     17 C3'         1.9685    0.6634    0.6767 C.3       1 ATP         0.0763
     18 O3'         2.1425    0.1975    1.9977 O.3       1 ATP        -0.5884
     19 C2'         0.5176    0.9128    0.3099 C.3       1 ATP         0.0784
     20 O2'        -0.2103    1.4454    1.4152 O.3       1 ATP        -0.6085
     21 C1'         0.6219    1.9765   -0.7844 C.3       1 ATP         0.2186
     22 N9          0.4237    1.4496   -2.1357 N.pl3     1 ATP        -0.1699
     23 C8          1.4069    0.9710   -2.9662 C.ar      1 ATP         0.4438
     24 N7          0.9316    0.5623   -4.1260 N.2       1 ATP        -0.6280
     25 C5         -0.4120    0.7884   -4.0344 C.ar      1 ATP         0.2109
     26 C6         -1.4353    0.5283   -5.0204 C.ar      1 ATP         0.6180
     27 N6         -1.1199    0.0176   -6.1586 N.2       1 ATP        -0.8319
     28 N1         -2.6704    0.9095   -4.5147 N.pl3     1 ATP        -0.8664
     29 C2         -2.8863    1.4571   -3.2520 C.ar      1 ATP         0.5952
     30 N3         -1.9805    1.7017   -2.3442 N.2       1 ATP        -0.5599
     31 C4         -0.7561    1.3381   -2.8112 C.ar      1 ATP         0.0076
     32 HOG3        9.2869    6.9131   -1.8995 H         1 ATP         0.4101
     33 H5'1        4.3179    1.3548   -0.6470 H         1 ATP         0.0364
     34 H5'2        4.6083    1.5737    1.0983 H         1 ATP         0.0364
     35 H4'         2.3752    2.7029    1.3156 H         1 ATP         0.0945
     36 H3'         2.4336   -0.1217   -0.0015 H         1 ATP         0.0703
     37 HO3'        1.7160   -0.6716    2.0397 H         1 ATP         0.4099
     38 H2'         0.0316    0.0155   -0.0339 H         1 ATP         0.0676
     39 HO2'       -0.1608    0.7921    2.1351 H         1 ATP         0.4291
     40 H1'        -0.1474    2.7798   -0.6651 H         1 ATP         0.0950
     41 H8          2.4466    0.9468   -2.6694 H         1 ATP         0.1135
     42 HN62       -1.9661   -0.0965   -6.7275 H         1 ATP         0.3588
     43 H2         -3.9481    1.6825   -3.0660 H         1 ATP         0.0302
     44 H44        -3.4814    0.7753   -5.1133 H         1 ATP         0.4215
@<TRIPOS>BOND
     1    1    2 2
     2    1    3 1
     3    1    4 1
     4    1    8 1
     5    4   32 1
     6    5    6 2
     7    5    7 1
     8    5    8 1
     9    5   12 1
    10    9   10 2
    11    9   11 1
    12    9   12 1
    13    9   13 1
    14   13   14 1
    15   14   15 1
    16   14   33 1
    17   14   34 1
    18   15   16 1
    19   15   17 1
    20   15   35 1
    21   16   21 1
    22   17   18 1
    23   17   19 1
    24   17   36 1
    25   18   37 1
    26   19   20 1
    27   19   21 1
    28   19   38 1
    29   20   39 1
    30   21   22 1
    31   21   40 1
    32   22   23 ar
    33   22   31 ar
    34   23   24 ar
    35   23   41 1
    36   24   25 ar
    37   25   26 ar
    38   25   31 ar
    39   26   27 2
    40   26   28 ar
    41   27   42 1
    42   28   29 ar
    43   28   44 1
    44   29   30 ar
    45   29   43 1
    46   30   31 ar
@<TRIPOS>SUBSTRUCTURE
     1 ATP         1 GROUP 0 A     ****
@<TRIPOS>MOLECULE
[[[3,4-dihydroxy-5-(6-imino-1~{H}-purin-9-yl)tetrahydrofuran-2-yl]methoxy-oxido-phosphoryl]oxy-oxido-phosphoryl] hydrogen phosphate
   44    46     1     0     0
SMALL
USER_CHARGES

@<TRIPOS>ATOM
      1 PG         -1.2620    9.4610    0.5003 P.3       1 ATP         1.5257
      2 O1G         0.1354    9.9810    0.2470 O.co2     1 ATP        -0.8737
      3 O2G        -2.1170   10.0372    1.6070 O.co2     1 ATP        -0.8737
      4 O3G        -2.1039    9.5343   -0.8967 O.3       1 ATP        -0.7971
      5 PB         -2.4175    6.7561    0.8036 P.3       1 ATP         1.6824
      6 O1B        -3.1286    6.9877    2.1182 O.co2     1 ATP        -0.8925
      7 O2B        -3.1791    6.7156   -0.5025 O.co2     1 ATP        -0.8925
      8 O3B        -1.2028    7.8386    0.6678 O.3       1 ATP        -0.8047
      9 PA         -0.3962    4.9846    2.0409 P.3       1 ATP         1.5908
     10 O1A        -1.0788    4.8233    3.3819 O.co2     1 ATP        -0.8932
     11 O2A         0.7937    5.9062    1.8845 O.co2     1 ATP        -0.8932
     12 O3A        -1.5174    5.3999    0.9273 O.3       1 ATP        -0.8088
     13 O5'         0.0178    3.5131    1.4595 O.3       1 ATP        -0.5646
     14 C5'        -0.8811    2.4285    1.6206 C.3       1 ATP         0.2204
     15 C4'        -0.1994    1.3333    2.4288 C.3       1 ATP         0.0965
     16 O4'        -1.1285    0.2356    2.5840 O.3       1 ATP        -0.3907
     17 C3'         1.0324    0.7610    1.7344 C.3       1 ATP         0.0763
     18 O3'         1.9175    0.2377    2.7247 O.3       1 ATP        -0.5884
     19 C2'         0.4468   -0.3802    0.9263 C.3       1 ATP         0.0784
     20 O2'         1.3993   -1.3703    0.5961 O.3       1 ATP        -0.6085
     21 C1'        -0.6159   -0.9100    1.8769 C.3       1 ATP         0.2186
     22 N9         -1.7127   -1.6108    1.2130 N.pl3     1 ATP        -0.1699
     23 C8         -2.5485   -1.0808    0.2609 C.ar      1 ATP         0.4438
     24 N7         -3.4476   -1.9486   -0.1593 N.2       1 ATP        -0.6280
     25 C5         -3.1762   -3.0816    0.5530 C.ar      1 ATP         0.2109
     26 C6         -3.8510   -4.3579    0.5006 C.ar      1 ATP         0.6180
     27 N6         -4.8468   -4.5293   -0.2961 N.2       1 ATP        -0.8319
     28 N1         -3.2499   -5.2342    1.3937 N.pl3     1 ATP        -0.8664
     29 C2         -2.1646   -4.9275    2.2116 C.ar      1 ATP         0.5952
     30 N3         -1.5382   -3.7840    2.2778 N.2       1 ATP        -0.5599
     31 C4         -2.1054   -2.9018    1.4120 C.ar      1 ATP         0.0076
     32 HOG3       -3.0363    9.2294   -0.8965 H         1 ATP         0.4101
     33 H5'1       -1.7771    2.7849    2.1387 H         1 ATP         0.0364
     34 H5'2       -1.1654    2.0541    0.6320 H         1 ATP         0.0364
     35 H4'         0.0403    1.7078    3.4343 H         1 ATP         0.0945
     36 H3'         1.5907    1.4859    1.1353 H         1 ATP         0.0703
     37 HO3'        2.1521    0.9800    3.3017 H         1 ATP         0.4099
     38 H2'        -0.0017    0.0018    0.0005 H         1 ATP         0.0676
     39 HO2'        0.9369   -2.0558    0.0825 H         1 ATP         0.4291
     40 H1'        -0.1998   -1.6319    2.6178 H         1 ATP         0.0950
     41 H8         -2.4515   -0.0599   -0.0829 H         1 ATP         0.1135
     42 HN62       -5.1990   -5.4882   -0.2005 H         1 ATP         0.3588
     43 H2         -1.8555   -5.7783    2.8388 H         1 ATP         0.0302
     44 H44        -3.6312   -6.1750    1.4526 H         1 ATP         0.4215
@<TRIPOS>BOND
     1    1    2 2
     2    1    3 1
     3    1    4 1
     4    1    8 1
     5    4   32 1
     6    5    6 2
     7    5    7 1
     8    5    8 1
     9    5   12 1
    10    9   10 2
    11    9   11 1
    12    9   12 1
    13    9   13 1
    14   13   14 1
    15   14   15 1
    16   14   33 1
    17   14   34 1
    18   15   16 1
    19   15   17 1
    20   15   35 1
    21   16   21 1
    22   17   18 1
    23   17   19 1
    24   17   36 1
    25   18   37 1
    26   19   20 1
    27   19   21 1
    28   19   38 1
    29   20   39 1
    30   21   22 1
    31   21   40 1
    32   22   23 ar
    33   22   31 ar
    34   23   24 ar
    35   23   41 1
    36   24   25 ar
    37   25   26 ar
    38   25   31 ar
    39   26   27 2
    40   26   28 ar
    41   27   42 1
    42   28   29 ar
    43   28   44 1
    44   29   30 ar
    45   29   43 1
    46   30   31 ar
@<TRIPOS>SUBSTRUCTURE
     1 ATP         1 GROUP 0 A     ****
@<TRIPOS>MOLECULE
[[[3,4-dihydroxy-5-(6-imino-1~{H}-purin-9-yl)tetrahydrofuran-2-yl]methoxy-oxido-phosphoryl]oxy-oxido-phosphoryl] hydrogen phosphate
   44    46     1     0     0
SMALL
USER_CHARGES

@<TRIPOS>ATOM
      1 PG         -4.1347    6.0507   -2.7066 P.3       1 ATP         1.5257
      2 O1G        -3.6532    7.3831   -3.2360 O.co2     1 ATP        -0.8737
      3 O2G        -5.4767    5.9262   -2.0200 O.co2     1 ATP        -0.8737
      4 O3G        -4.0684    4.9570   -3.9171 O.3       1 ATP        -0.7971
      5 PB         -1.4007    5.1489   -2.0320 P.3       1 ATP         1.6824
      6 O1B        -1.2786    4.0714   -3.0863 O.co2     1 ATP        -0.8925
      7 O2B        -0.7047    6.4823   -2.1904 O.co2     1 ATP        -0.8925
      8 O3B        -2.9842    5.4166   -1.7381 O.3       1 ATP        -0.8047
      9 PA          0.4528    3.9705   -0.0493 P.3       1 ATP         1.5908
     10 O1A         1.4111    5.1388    0.0343 O.co2     1 ATP        -0.8932
     11 O2A         0.8144    2.7281   -0.8338 O.co2     1 ATP        -0.8932
     12 O3A        -0.9922    4.5136   -0.5848 O.3       1 ATP        -0.8088
     13 O5'         0.0178    3.5131    1.4595 O.3       1 ATP        -0.5646
     14 C5'        -0.8811    2.4285    1.6206 C.3       1 ATP         0.2204
     15 C4'        -0.1994    1.3333    2.4288 C.3       1 ATP         0.0965
     16 O4'        -1.1285    0.2356    2.5840 O.3       1 ATP        -0.3907
     17 C3'         1.0324    0.7610    1.7344 C.3       1 ATP         0.0763
     18 O3'         1.9175    0.2377    2.7247 O.3       1 ATP        -0.5884
     19 C2'         0.4468   -0.3802    0.9263 C.3       1 ATP         0.0784
     20 O2'         1.3993   -1.3703    0.5961 O.3       1 ATP        -0.6085
     21 C1'        -0.6159   -0.9100    1.8769 C.3       1 ATP         0.2186
     22 N9         -1.7127   -1.6108    1.2130 N.pl3     1 ATP        -0.1699
     23 C8         -1.7690   -2.9583    0.9549 C.ar      1 ATP         0.4438
     24 N7         -2.8827   -3.3076    0.3418 N.2       1 ATP        -0.6280
     25 C5         -3.5683   -2.1351    0.2017 C.ar      1 ATP         0.2109
     26 C6         -4.8617   -1.9185   -0.4044 C.ar      1 ATP         0.6180
     27 N6         -5.5166   -2.9094   -0.8993 N.2       1 ATP        -0.8319
     28 N1         -5.1837   -0.5701   -0.3344 N.pl3     1 ATP        -0.8664
     29 C2         -4.3821    0.4180    0.2330 C.ar      1 ATP         0.5952
     30 N3         -3.2117    0.2488    0.7860 N.2       1 ATP        -0.5599
     31 C4         -2.8672   -1.0657    0.7327 C.ar      1 ATP         0.0076
     32 HOG3       -4.3509    4.0363   -3.7305 H         1 ATP         0.4101
     33 H5'1       -1.7771    2.7849    2.1387 H         1 ATP         0.0364
     34 H5'2       -1.1654    2.0541    0.6320 H         1 ATP         0.0364
     35 H4'         0.0403    1.7078    3.4343 H         1 ATP         0.0945
     36 H3'         1.5907    1.4859    1.1353 H         1 ATP         0.0703
     37 HO3'        2.6839   -0.1150    2.2479 H         1 ATP         0.4099
     38 H2'        -0.0017    0.0018    0.0005 H         1 ATP         0.0676
     39 HO2'        2.0953   -0.9375    0.0709 H         1 ATP         0.4291
     40 H1'        -0.1998   -1.6319    2.6178 H         1 ATP         0.0950
     41 H8         -0.9697   -3.6300    1.2371 H         1 ATP         0.1135
     42 HN62       -6.4060   -2.5723   -1.2840 H         1 ATP         0.3588
     43 H2         -4.8409    1.4176    0.1757 H         1 ATP         0.0302
     44 H44        -6.0768   -0.2826   -0.7263 H         1 ATP         0.4215
@<TRIPOS>BOND
     1    1    2 2
     2    1    3 1
     3    1    4 1
     4    1    8 1
     5    4   32 1
     6    5    6 2
     7    5    7 1
     8    5    8 1
     9    5   12 1
    10    9   10 2
    11    9   11 1
    12    9   12 1
    13    9   13 1
    14   13   14 1
    15   14   15 1
    16   14   33 1
    17   14   34 1
    18   15   16 1
    19   15   17 1
    20   15   35 1
    21   16   21 1
    22   17   18 1
    23   17   19 1
    24   17   36 1
    25   18   37 1
    26   19   20 1
    27   19   21 1
    28   19   38 1
    29   20   39 1
    30   21   22 1
    31   21   40 1
    32   22   23 ar
    33   22   31 ar
    34   23   24 ar
    35   23   41 1
    36   24   25 ar
    37   25   26 ar
    38   25   31 ar
    39   26   27 2
    40   26   28 ar
    41   27   42 1
    42   28   29 ar
    43   28   44 1
    44   29   30 ar
    45   29   43 1
    46   30   31 ar
@<TRIPOS>SUBSTRUCTURE
     1 ATP         1 GROUP 0 A     ****
@<TRIPOS>MOLECULE
[[[3,4-dihydroxy-5-(6-imino-1~{H}-purin-9-yl)tetrahydrofuran-2-yl]methoxy-oxido-phosphoryl]oxy-oxido-phosphoryl] hydrogen phosphate
   44    46     1     0     0
SMALL
USER_CHARGES

@<TRIPOS>ATOM
      1 PG          8.9961    3.0762    3.5468 P.3       1 ATP         1.5257
      2 O1G         9.6759    4.4026    3.8036 O.co2     1 ATP        -0.8737
      3 O2G         9.3504    2.2429    2.3353 O.co2     1 ATP        -0.8737
      4 O3G         9.1533    2.1462    4.8796 O.3       1 ATP        -0.7971
      5 PB          6.4101    4.1270    2.5711 P.3       1 ATP         1.6824
      6 O1B         4.9698    3.8716    2.9557 O.co2     1 ATP        -0.8925
      7 O2B         6.9472    5.5345    2.4368 O.co2     1 ATP        -0.8925
      8 O3B         7.3788    3.2918    3.5859 O.3       1 ATP        -0.8047
      9 PA          6.1593    3.5241   -0.3148 P.3       1 ATP         1.5908
     10 O1A         6.6760    2.4087   -1.1975 O.co2     1 ATP        -0.8932
     11 O2A         6.3639    4.9731   -0.6998 O.co2     1 ATP        -0.8932
     12 O3A         6.7382    3.3079    1.1978 O.3       1 ATP        -0.8088
     13 O5'         4.5670    3.2937   -0.0211 O.3       1 ATP        -0.5646
     14 C5'         4.0922    1.9801    0.2227 C.3       1 ATP         0.2204
     15 C4'         2.5944    2.0310    0.4653 C.3       1 ATP         0.0965
     16 O4'         1.9327    2.5740   -0.6889 O.3       1 ATP        -0.3907
     17 C3'         1.9685    0.6634    0.6767 C.3       1 ATP         0.0763
     18 O3'         2.1425    0.1975    1.9977 O.3       1 ATP        -0.5884
     19 C2'         0.5176    0.9128    0.3099 C.3       1 ATP         0.0784
     20 O2'        -0.2103    1.4454    1.4152 O.3       1 ATP        -0.6085
     21 C1'         0.6219    1.9765   -0.7844 C.3       1 ATP         0.2186
     22 N9          0.4237    1.4496   -2.1357 N.pl3     1 ATP        -0.1699
     23 C8         -0.7779    1.3483   -2.7928 C.ar      1 ATP         0.4438
     24 N7         -0.6499    0.8341   -3.9999 N.2       1 ATP        -0.6280
     25 C5          0.6893    0.5965   -4.1212 C.ar      1 ATP         0.2109
     26 C6          1.4031    0.0342   -5.2443 C.ar      1 ATP         0.6180
     27 N6          0.7649   -0.3130   -6.3063 N.2       1 ATP        -0.8319
     28 N1          2.7566   -0.0326   -4.9437 N.pl3     1 ATP        -0.8664
     29 C2          3.3337    0.3796   -3.7446 C.ar      1 ATP         0.5952
     30 N3          2.7120    0.8899   -2.7163 N.2       1 ATP        -0.5599
     31 C4          1.3803    0.9684   -2.9805 C.ar      1 ATP         0.0076
     32 HOG3        8.7614    1.2469    4.8703 H         1 ATP         0.4101
     33 H5'1        4.3179    1.3548   -0.6470 H         1 ATP         0.0364
     34 H5'2        4.6083    1.5737    1.0983 H         1 ATP         0.0364
     35 H4'         2.3752    2.7029    1.3156 H         1 ATP         0.0945
     36 H3'         2.4336   -0.1217   -0.0015 H         1 ATP         0.0703
     37 HO3'        1.7160   -0.6716    2.0397 H         1 ATP         0.4099
     38 H2'         0.0316    0.0155   -0.0339 H         1 ATP         0.0676
     39 HO2'       -1.1270    1.5823    1.1180 H         1 ATP         0.4291
     40 H1'        -0.1474    2.7798   -0.6651 H         1 ATP         0.0950
     41 H8         -1.7076    1.6648   -2.3398 H         1 ATP         0.1135
     42 HN62        1.4266   -0.6890   -6.9943 H         1 ATP         0.3588
     43 H2          4.4251    0.2326   -3.7294 H         1 ATP         0.0302
     44 H44         3.3750   -0.4100   -5.6572 H         1 ATP         0.4215
@<TRIPOS>BOND
     1    1    2 2
     2    1    3 1
     3    1    4 1
     4    1    8 1
     5    4   32 1
     6    5    6 2
     7    5    7 1
     8    5    8 1
     9    5   12 1
    10    9   10 2
    11    9   11 1
    12    9   12 1
    13    9   13 1
    14   13   14 1
    15   14   15 1
    16   14   33 1
    17   14   34 1
    18   15   16 1
    19   15   17 1
    20   15   35 1
    21   16   21 1
    22   17   18 1
    23   17   19 1
    24   17   36 1
    25   18   37 1
    26   19   20 1
    27   19   21 1
    28   19   38 1
    29   20   39 1
    30   21   22 1
    31   21   40 1
    32   22   23 ar
    33   22   31 ar
    34   23   24 ar
    35   23   41 1
    36   24   25 ar
    37   25   26 ar
    38   25   31 ar
    39   26   27 2
    40   26   28 ar
    41   27   42 1
    42   28   29 ar
    43   28   44 1
    44   29   30 ar
    45   29   43 1
    46   30   31 ar
@<TRIPOS>SUBSTRUCTURE
     1 ATP         1 GROUP 0 A     ****
@<TRIPOS>MOLECULE
[[[3,4-dihydroxy-5-(6-imino-1~{H}-purin-9-yl)tetrahydrofuran-2-yl]methoxy-oxido-phosphoryl]oxy-oxido-phosphoryl] hydrogen phosphate
   44    46     1     0     0
SMALL
USER_CHARGES

@<TRIPOS>ATOM
      1 PG          9.7255   -2.1471    1.6682 P.3       1 ATP         1.5257
      2 O1G         9.7130   -2.4727    3.1451 O.co2     1 ATP        -0.8737
      3 O2G        10.9279   -1.4907    1.0270 O.co2     1 ATP        -0.8737
      4 O3G         9.3704   -3.5054    0.8346 O.3       1 ATP        -0.7971
      5 PB          7.8236   -0.7942   -0.1473 P.3       1 ATP         1.6824
      6 O1B         8.7876    0.2127   -0.7340 O.co2     1 ATP        -0.8925
      7 O2B         7.3917   -2.0138   -0.9306 O.co2     1 ATP        -0.8925
      8 O3B         8.3922   -1.2789    1.3044 O.3       1 ATP        -0.8047
      9 PA          6.3565    1.2771    1.3734 P.3       1 ATP         1.5908
     10 O1A         6.9879    2.4828    0.7118 O.co2     1 ATP        -0.8932
     11 O2A         6.7839    0.8423    2.7584 O.co2     1 ATP        -0.8932
     12 O3A         6.4914   -0.0042    0.3685 O.3       1 ATP        -0.8088
     13 O5'         4.7294    1.4427    1.3696 O.3       1 ATP        -0.5646
     14 C5'         4.0922    1.9801    0.2227 C.3       1 ATP         0.2204
     15 C4'         2.5944    2.0310    0.4653 C.3       1 ATP         0.0965
     16 O4'         1.9327    2.5740   -0.6889 O.3       1 ATP        -0.3907
     17 C3'         1.9685    0.6634    0.6767 C.3       1 ATP         0.0763
     18 O3'         2.1425    0.1975    1.9977 O.3       1 ATP        -0.5884
     19 C2'         0.5176    0.9128    0.3099 C.3       1 ATP         0.0784
     20 O2'        -0.2103    1.4454    1.4152 O.3       1 ATP        -0.6085
     21 C1'         0.6219    1.9765   -0.7844 C.3       1 ATP         0.2186
     22 N9          0.4237    1.4496   -2.1357 N.pl3     1 ATP        -0.1699
     23 C8          1.4069    0.9710   -2.9662 C.ar      1 ATP         0.4438
     24 N7          0.9316    0.5623   -4.1260 N.2       1 ATP        -0.6280
     25 C5         -0.4120    0.7884   -4.0344 C.ar      1 ATP         0.2109
     26 C6         -1.4353    0.5283   -5.0204 C.ar      1 ATP         0.6180
     27 N6         -1.1199    0.0176   -6.1586 N.2       1 ATP        -0.8319
     28 N1         -2.6704    0.9095   -4.5147 N.pl3     1 ATP        -0.8664
     29 C2         -2.8863    1.4571   -3.2520 C.ar      1 ATP         0.5952
     30 N3         -1.9805    1.7017   -2.3442 N.2       1 ATP        -0.5599
     31 C4         -0.7561    1.3381   -2.8112 C.ar      1 ATP         0.0076
     32 HOG3        9.3392   -3.4575   -0.1447 H         1 ATP         0.4101
     33 H5'1        4.4843    2.9854    0.0380 H         1 ATP         0.0364
     34 H5'2        4.3191    1.3446   -0.6392 H         1 ATP         0.0364
     35 H4'         2.3752    2.7029    1.3156 H         1 ATP         0.0945
     36 H3'         2.4336   -0.1217   -0.0015 H         1 ATP         0.0703
     37 HO3'        3.0987    0.1465    2.1461 H         1 ATP         0.4099
     38 H2'         0.0316    0.0155   -0.0339 H         1 ATP         0.0676
     39 HO2'       -1.1270    1.5823    1.1180 H         1 ATP         0.4291
     40 H1'        -0.1474    2.7798   -0.6651 H         1 ATP         0.0950
     41 H8          2.4466    0.9468   -2.6694 H         1 ATP         0.1135
     42 HN62       -1.9661   -0.0965   -6.7275 H         1 ATP         0.3588
     43 H2         -3.9481    1.6825   -3.0660 H         1 ATP         0.0302
     44 H44        -3.4814    0.7753   -5.1133 H         1 ATP         0.4215
@<TRIPOS>BOND
     1    1    2 2
     2    1    3 1
     3    1    4 1
     4    1    8 1
     5    4   32 1
     6    5    6 2
     7    5    7 1
     8    5    8 1
     9    5   12 1
    10    9   10 2
    11    9   11 1
    12    9   12 1
    13    9   13 1
    14   13   14 1
    15   14   15 1
    16   14   33 1
    17   14   34 1
    18   15   16 1
    19   15   17 1
    20   15   35 1
    21   16   21 1
    22   17   18 1
    23   17   19 1
    24   17   36 1
    25   18   37 1
    26   19   20 1
    27   19   21 1
    28   19   38 1
    29   20   39 1
    30   21   22 1
    31   21   40 1
    32   22   23 ar
    33   22   31 ar
    34   23   24 ar
    35   23   41 1
    36   24   25 ar
    37   25   26 ar
    38   25   31 ar
    39   26   27 2
    40   26   28 ar
    41   27   42 1
    42   28   29 ar
    43   28   44 1
    44   29   30 ar
    45   29   43 1
    46   30   31 ar
@<TRIPOS>SUBSTRUCTURE
     1 ATP         1 GROUP 0 A     ****
@<TRIPOS>MOLECULE
[[[3,4-dihydroxy-5-(6-imino-1~{H}-purin-9-yl)tetrahydrofuran-2-yl]methoxy-oxido-phosphoryl]oxy-oxido-phosphoryl] hydrogen phosphate
   44    46     1     0     0
SMALL
USER_CHARGES

@<TRIPOS>ATOM
      1 PG         -6.3516    3.0711   -1.5993 P.3       1 ATP         1.5257
      2 O1G        -6.5766    1.5766   -1.6562 O.co2     1 ATP        -0.8737
      3 O2G        -6.1813    3.8803   -2.8657 O.co2     1 ATP        -0.8737
      4 O3G        -7.5468    3.7421   -0.7121 O.3       1 ATP        -0.7971
      5 PB         -4.5240    4.8101   -0.0567 P.3       1 ATP         1.6824
      6 O1B        -3.9403    5.5739   -1.2243 O.co2     1 ATP        -0.8925
      7 O2B        -5.5603    5.4364    0.8497 O.co2     1 ATP        -0.8925
      8 O3B        -5.0988    3.3819   -0.6004 O.3       1 ATP        -0.8047
      9 PA         -3.3347    3.2338    2.1468 P.3       1 ATP         1.5908
     10 O1A        -3.8074    1.8725    1.6847 O.co2     1 ATP        -0.8932
     11 O2A        -4.0244    3.9450    3.2906 O.co2     1 ATP        -0.8932
     12 O3A        -3.2997    4.2420    0.8615 O.3       1 ATP        -0.8088
     13 O5'        -1.7336    3.1724    2.4750 O.3       1 ATP        -0.5646
     14 C5'        -0.8811    2.4285    1.6206 C.3       1 ATP         0.2204
     15 C4'        -0.1994    1.3333    2.4288 C.3       1 ATP         0.0965
     16 O4'        -1.1285    0.2356    2.5840 O.3       1 ATP        -0.3907
     17 C3'         1.0324    0.7610    1.7344 C.3       1 ATP         0.0763
     18 O3'         1.9175    0.2377    2.7247 O.3       1 ATP        -0.5884
     19 C2'         0.4468   -0.3802    0.9263 C.3       1 ATP         0.0784
     20 O2'         1.3993   -1.3703    0.5961 O.3       1 ATP        -0.6085
     21 C1'        -0.6159   -0.9100    1.8769 C.3       1 ATP         0.2186
     22 N9         -1.7127   -1.6108    1.2130 N.pl3     1 ATP        -0.1699
     23 C8         -2.0868   -2.9137    1.4327 C.ar      1 ATP         0.4438
     24 N7         -3.1125   -3.2756    0.6878 N.2       1 ATP        -0.6280
     25 C5         -3.4079   -2.1580   -0.0391 C.ar      1 ATP         0.2109
     26 C6         -4.4483   -1.9775   -1.0249 C.ar      1 ATP         0.6180
     27 N6         -5.2418   -2.9492   -1.3113 N.2       1 ATP        -0.8319
     28 N1         -4.3937   -0.6823   -1.5211 N.pl3     1 ATP        -0.8664
     29 C2         -3.4770    0.2901   -1.1271 C.ar      1 ATP         0.5952
     30 N3         -2.5289    0.1525   -0.2402 N.2       1 ATP        -0.5599
     31 C4         -2.5564   -1.1096    0.2655 C.ar      1 ATP         0.0076
     32 HOG3       -7.5417    4.7143   -0.5812 H         1 ATP         0.4101
     33 H5'1       -1.4800    1.9927    0.8146 H         1 ATP         0.0364
     34 H5'2       -0.1367    3.1040    1.1872 H         1 ATP         0.0364
     35 H4'         0.0403    1.7078    3.4343 H         1 ATP         0.0945
     36 H3'         1.5907    1.4859    1.1353 H         1 ATP         0.0703
     37 HO3'        2.6839   -0.1150    2.2479 H         1 ATP         0.4099
     38 H2'        -0.0017    0.0018    0.0005 H         1 ATP         0.0676
     39 HO2'        0.9369   -2.0558    0.0825 H         1 ATP         0.4291
     40 H1'        -0.1998   -1.6319    2.6178 H         1 ATP         0.0950
     41 H8         -1.5740   -3.5449    2.1457 H         1 ATP         0.1135
     42 HN62       -5.9117   -2.6433   -2.0256 H         1 ATP         0.3588
     43 H2         -3.6225    1.2454   -1.6553 H         1 ATP         0.0302
     44 H44        -5.0794   -0.4231   -2.2258 H         1 ATP         0.4215
@<TRIPOS>BOND
     1    1    2 2
     2    1    3 1
     3    1    4 1
     4    1    8 1
     5    4   32 1
     6    5    6 2
     7    5    7 1
     8    5    8 1
     9    5   12 1
    10    9   10 2
    11    9   11 1
    12    9   12 1
    13    9   13 1
    14   13   14 1
    15   14   15 1
    16   14   33 1
    17   14   34 1
    18   15   16 1
    19   15   17 1
    20   15   35 1
    21   16   21 1
    22   17   18 1
    23   17   19 1
    24   17   36 1
    25   18   37 1
    26   19   20 1
    27   19   21 1
    28   19   38 1
    29   20   39 1
    30   21   22 1
    31   21   40 1
    32   22   23 ar
    33   22   31 ar
    34   23   24 ar
    35   23   41 1
    36   24   25 ar
    37   25   26 ar
    38   25   31 ar
    39   26   27 2
    40   26   28 ar
    41   27   42 1
    42   28   29 ar
    43   28   44 1
    44   29   30 ar
    45   29   43 1
    46   30   31 ar
@<TRIPOS>SUBSTRUCTURE
     1 ATP         1 GROUP 0 A     ****
@<TRIPOS>MOLECULE
[[[3,4-dihydroxy-5-(6-imino-1~{H}-purin-9-yl)tetrahydrofuran-2-yl]methoxy-oxido-phosphoryl]oxy-oxido-phosphoryl] hydrogen phosphate
   44    46     1     0     0
SMALL
USER_CHARGES

@<TRIPOS>ATOM
      1 PG          9.9761    5.7839    1.5526 P.3       1 ATP         1.5257
      2 O1G        11.0704    5.1942    0.6910 O.co2     1 ATP        -0.8737
      3 O2G        10.1886    6.0086    3.0332 O.co2     1 ATP        -0.8737
      4 O3G         9.4868    7.1889    0.8800 O.3       1 ATP        -0.7971
      5 PB          8.2727    3.3750    1.7508 P.3       1 ATP         1.6824
      6 O1B         9.1306    2.4529    0.9135 O.co2     1 ATP        -0.8925
      7 O2B         8.2499    3.2688    3.2593 O.co2     1 ATP        -0.8925
      8 O3B         8.6085    4.9190    1.3398 O.3       1 ATP        -0.8047
      9 PA          6.1593    3.5241   -0.3148 P.3       1 ATP         1.5908
     10 O1A         6.6760    2.4087   -1.1975 O.co2     1 ATP        -0.8932
     11 O2A         6.3639    4.9731   -0.6998 O.co2     1 ATP        -0.8932
     12 O3A         6.7382    3.3079    1.1978 O.3       1 ATP        -0.8088
     13 O5'         4.5670    3.2937   -0.0211 O.3       1 ATP        -0.5646
     14 C5'         4.0922    1.9801    0.2227 C.3       1 ATP         0.2204
     15 C4'         2.5944    2.0310    0.4653 C.3       1 ATP         0.0965
     16 O4'         1.9327    2.5740   -0.6889 O.3       1 ATP        -0.3907
     17 C3'         1.9685    0.6634    0.6767 C.3       1 ATP         0.0763
     18 O3'         2.1425    0.1975    1.9977 O.3       1 ATP        -0.5884
     19 C2'         0.5176    0.9128    0.3099 C.3       1 ATP         0.0784
     20 O2'        -0.2103    1.4454    1.4152 O.3       1 ATP        -0.6085
     21 C1'         0.6219    1.9765   -0.7844 C.3       1 ATP         0.2186
     22 N9          0.4237    1.4496   -2.1357 N.pl3     1 ATP        -0.1699
     23 C8         -0.7779    1.3483   -2.7928 C.ar      1 ATP         0.4438
     24 N7         -0.6499    0.8341   -3.9999 N.2       1 ATP        -0.6280
     25 C5          0.6893    0.5965   -4.1212 C.ar      1 ATP         0.2109
     26 C6          1.4031    0.0342   -5.2443 C.ar      1 ATP         0.6180
     27 N6          0.7649   -0.3130   -6.3063 N.2       1 ATP        -0.8319
     28 N1          2.7566   -0.0326   -4.9437 N.pl3     1 ATP        -0.8664
     29 C2          3.3337    0.3796   -3.7446 C.ar      1 ATP         0.5952
     30 N3          2.7120    0.8899   -2.7163 N.2       1 ATP        -0.5599
     31 C4          1.3803    0.9684   -2.9805 C.ar      1 ATP         0.0076
     32 HOG3        8.7751    7.6966    1.3250 H         1 ATP         0.4101
     33 H5'1        4.3179    1.3548   -0.6470 H         1 ATP         0.0364
     34 H5'2        4.6083    1.5737    1.0983 H         1 ATP         0.0364
     35 H4'         2.3752    2.7029    1.3156 H         1 ATP         0.0945
     36 H3'         2.4336   -0.1217   -0.0015 H         1 ATP         0.0703
     37 HO3'        1.7160   -0.6716    2.0397 H         1 ATP         0.4099
     38 H2'         0.0316    0.0155   -0.0339 H         1 ATP         0.0676
     39 HO2'       -0.1608    0.7921    2.1351 H         1 ATP         0.4291
     40 H1'        -0.1474    2.7798   -0.6651 H         1 ATP         0.0950
     41 H8         -1.7076    1.6648   -2.3398 H         1 ATP         0.1135
     42 HN62        1.4266   -0.6890   -6.9943 H         1 ATP         0.3588
     43 H2          4.4251    0.2326   -3.7294 H         1 ATP         0.0302
     44 H44         3.3750   -0.4100   -5.6572 H         1 ATP         0.4215
@<TRIPOS>BOND
     1    1    2 2
     2    1    3 1
     3    1    4 1
     4    1    8 1
     5    4   32 1
     6    5    6 2
     7    5    7 1
     8    5    8 1
     9    5   12 1
    10    9   10 2
    11    9   11 1
    12    9   12 1
    13    9   13 1
    14   13   14 1
    15   14   15 1
    16   14   33 1
    17   14   34 1
    18   15   16 1
    19   15   17 1
    20   15   35 1
    21   16   21 1
    22   17   18 1
    23   17   19 1
    24   17   36 1
    25   18   37 1
    26   19   20 1
    27   19   21 1
    28   19   38 1
    29   20   39 1
    30   21   22 1
    31   21   40 1
    32   22   23 ar
    33   22   31 ar
    34   23   24 ar
    35   23   41 1
    36   24   25 ar
    37   25   26 ar
    38   25   31 ar
    39   26   27 2
    40   26   28 ar
    41   27   42 1
    42   28   29 ar
    43   28   44 1
    44   29   30 ar
    45   29   43 1
    46   30   31 ar
@<TRIPOS>SUBSTRUCTURE
     1 ATP         1 GROUP 0 A     ****
@<TRIPOS>MOLECULE
[[[3,4-dihydroxy-5-(6-imino-1~{H}-purin-9-yl)tetrahydrofuran-2-yl]methoxy-oxido-phosphoryl]oxy-oxido-phosphoryl] hydrogen phosphate
   44    46     1     0     0
SMALL
USER_CHARGES

@<TRIPOS>ATOM
      1 PG         10.1674    4.1640   -0.6458 P.3       1 ATP         1.5257
      2 O1G        10.5388    3.6629   -2.0236 O.co2     1 ATP        -0.8737
      3 O2G        11.1894    4.2037    0.4685 O.co2     1 ATP        -0.8737
      4 O3G         9.5052    5.6490   -0.7951 O.3       1 ATP        -0.7971
      5 PB          8.6716    1.7810    0.2637 P.3       1 ATP         1.6824
      6 O1B         8.8338    0.9513   -0.9904 O.co2     1 ATP        -0.8925
      7 O2B         9.4875    1.4933    1.5043 O.co2     1 ATP        -0.8925
      8 O3B         8.8480    3.3569   -0.1249 O.3       1 ATP        -0.8047
      9 PA          6.1203    0.6016    1.1881 P.3       1 ATP         1.5908
     10 O1A         6.6064    0.1323    2.5423 O.co2     1 ATP        -0.8932
     11 O2A         5.9344   -0.3788    0.0506 O.co2     1 ATP        -0.8932
     12 O3A         7.0912    1.8099    0.6713 O.3       1 ATP        -0.8088
     13 O5'         4.7294    1.4427    1.3696 O.3       1 ATP        -0.5646
     14 C5'         4.0922    1.9801    0.2227 C.3       1 ATP         0.2204
     15 C4'         2.5944    2.0310    0.4653 C.3       1 ATP         0.0965
     16 O4'         1.9327    2.5740   -0.6889 O.3       1 ATP        -0.3907
     17 C3'         1.9685    0.6634    0.6767 C.3       1 ATP         0.0763
     18 O3'         2.1425    0.1975    1.9977 O.3       1 ATP        -0.5884
     19 C2'         0.5176    0.9128    0.3099 C.3       1 ATP         0.0784
     20 O2'        -0.2103    1.4454    1.4152 O.3       1 ATP        -0.6085
     21 C1'         0.6219    1.9765   -0.7844 C.3       1 ATP         0.2186
     22 N9          0.4237    1.4496   -2.1357 N.pl3     1 ATP        -0.1699
     23 C8          1.4069    0.9710   -2.9662 C.ar      1 ATP         0.4438
     24 N7          0.9316    0.5623   -4.1260 N.2       1 ATP        -0.6280
     25 C5         -0.4120    0.7884   -4.0344 C.ar      1 ATP         0.2109
     26 C6         -1.4353    0.5283   -5.0204 C.ar      1 ATP         0.6180
     27 N6         -1.1199    0.0176   -6.1586 N.2       1 ATP        -0.8319
     28 N1         -2.6704    0.9095   -4.5147 N.pl3     1 ATP        -0.8664
     29 C2         -2.8863    1.4571   -3.2520 C.ar      1 ATP         0.5952
     30 N3         -1.9805    1.7017   -2.3442 N.2       1 ATP        -0.5599
     31 C4         -0.7561    1.3381   -2.8112 C.ar      1 ATP         0.0076
     32 HOG3        9.2096    6.1123    0.0175 H         1 ATP         0.4101
     33 H5'1        4.4843    2.9854    0.0380 H         1 ATP         0.0364
     34 H5'2        4.3191    1.3446   -0.6392 H         1 ATP         0.0364
     35 H4'         2.3752    2.7029    1.3156 H         1 ATP         0.0945
     36 H3'         2.4336   -0.1217   -0.0015 H         1 ATP         0.0703
     37 HO3'        1.7160   -0.6716    2.0397 H         1 ATP         0.4099
     38 H2'         0.0316    0.0155   -0.0339 H         1 ATP         0.0676
     39 HO2'       -0.1608    0.7921    2.1351 H         1 ATP         0.4291
     40 H1'        -0.1474    2.7798   -0.6651 H         1 ATP         0.0950
     41 H8          2.4466    0.9468   -2.6694 H         1 ATP         0.1135
     42 HN62       -1.9661   -0.0965   -6.7275 H         1 ATP         0.3588
     43 H2         -3.9481    1.6825   -3.0660 H         1 ATP         0.0302
     44 H44        -3.4814    0.7753   -5.1133 H         1 ATP         0.4215
@<TRIPOS>BOND
     1    1    2 2
     2    1    3 1
     3    1    4 1
     4    1    8 1
     5    4   32 1
     6    5    6 2
     7    5    7 1
     8    5    8 1
     9    5   12 1
    10    9   10 2
    11    9   11 1
    12    9   12 1
    13    9   13 1
    14   13   14 1
    15   14   15 1
    16   14   33 1
    17   14   34 1
    18   15   16 1
    19   15   17 1
    20   15   35 1
    21   16   21 1
    22   17   18 1
    23   17   19 1
    24   17   36 1
    25   18   37 1
    26   19   20 1
    27   19   21 1
    28   19   38 1
    29   20   39 1
    30   21   22 1
    31   21   40 1
    32   22   23 ar
    33   22   31 ar
    34   23   24 ar
    35   23   41 1
    36   24   25 ar
    37   25   26 ar
    38   25   31 ar
    39   26   27 2
    40   26   28 ar
    41   27   42 1
    42   28   29 ar
    43   28   44 1
    44   29   30 ar
    45   29   43 1
    46   30   31 ar
@<TRIPOS>SUBSTRUCTURE
     1 ATP         1 GROUP 0 A     ****
@<TRIPOS>MOLECULE
[[[3,4-dihydroxy-5-(6-imino-1~{H}-purin-9-yl)tetrahydrofuran-2-yl]methoxy-oxido-phosphoryl]oxy-oxido-phosphoryl] hydrogen phosphate
   44    46     1     0     0
SMALL
USER_CHARGES

@<TRIPOS>ATOM
      1 PG          7.6340    3.4879    5.1860 P.3       1 ATP         1.5257
      2 O1G         6.3635    3.1474    5.9324 O.co2     1 ATP        -0.8737
      3 O2G         8.3384    4.8072    5.4119 O.co2     1 ATP        -0.8737
      4 O3G         8.7091    2.2805    5.4141 O.3       1 ATP        -0.7971
      5 PB          6.4101    4.1270    2.5711 P.3       1 ATP         1.6824
      6 O1B         4.9698    3.8716    2.9557 O.co2     1 ATP        -0.8925
      7 O2B         6.9472    5.5345    2.4368 O.co2     1 ATP        -0.8925
      8 O3B         7.3788    3.2918    3.5859 O.3       1 ATP        -0.8047
      9 PA          6.1593    3.5241   -0.3148 P.3       1 ATP         1.5908
     10 O1A         6.6760    2.4087   -1.1975 O.co2     1 ATP        -0.8932
     11 O2A         6.3639    4.9731   -0.6998 O.co2     1 ATP        -0.8932
     12 O3A         6.7382    3.3079    1.1978 O.3       1 ATP        -0.8088
     13 O5'         4.5670    3.2937   -0.0211 O.3       1 ATP        -0.5646
     14 C5'         4.0922    1.9801    0.2227 C.3       1 ATP         0.2204
     15 C4'         2.5944    2.0310    0.4653 C.3       1 ATP         0.0965
     16 O4'         1.9327    2.5740   -0.6889 O.3       1 ATP        -0.3907
     17 C3'         1.9685    0.6634    0.6767 C.3       1 ATP         0.0763
     18 O3'         2.1425    0.1975    1.9977 O.3       1 ATP        -0.5884
     19 C2'         0.5176    0.9128    0.3099 C.3       1 ATP         0.0784
     20 O2'        -0.2103    1.4454    1.4152 O.3       1 ATP        -0.6085
     21 C1'         0.6219    1.9765   -0.7844 C.3       1 ATP         0.2186
     22 N9          0.4237    1.4496   -2.1357 N.pl3     1 ATP        -0.1699
     23 C8          1.1891    0.4862   -2.7452 C.ar      1 ATP         0.4438
     24 N7          0.7743    0.2113   -3.9661 N.2       1 ATP        -0.6280
     25 C5         -0.3017    1.0326   -4.1458 C.ar      1 ATP         0.2109
     26 C6         -1.1512    1.1578   -5.3076 C.ar      1 ATP         0.6180
     27 N6         -0.9306    0.4354   -6.3493 N.2       1 ATP        -0.8319
     28 N1         -2.1281    2.1133   -5.0636 N.pl3     1 ATP        -0.8664
     29 C2         -2.2653    2.8370   -3.8811 C.ar      1 ATP         0.5952
     30 N3         -1.5123    2.7429   -2.8189 N.2       1 ATP        -0.5599
     31 C4         -0.5429    1.8121   -3.0273 C.ar      1 ATP         0.0076
     32 HOG3        9.5905    2.3538    4.9899 H         1 ATP         0.4101
     33 H5'1        4.3179    1.3548   -0.6470 H         1 ATP         0.0364
     34 H5'2        4.6083    1.5737    1.0983 H         1 ATP         0.0364
     35 H4'         2.3752    2.7029    1.3156 H         1 ATP         0.0945
     36 H3'         2.4336   -0.1217   -0.0015 H         1 ATP         0.0703
     37 HO3'        3.0987    0.1465    2.1461 H         1 ATP         0.4099
     38 H2'         0.0316    0.0155   -0.0339 H         1 ATP         0.0676
     39 HO2'       -1.1270    1.5823    1.1180 H         1 ATP         0.4291
     40 H1'        -0.1474    2.7798   -0.6651 H         1 ATP         0.0950
     41 H8          2.0323    0.0251   -2.2492 H         1 ATP         0.1135
     42 HN62       -1.6261    0.6558   -7.0707 H         1 ATP         0.3588
     43 H2         -3.1123    3.5402   -3.9130 H         1 ATP         0.0302
     44 H44        -2.7975    2.2966   -5.8068 H         1 ATP         0.4215
@<TRIPOS>BOND
     1    1    2 2
     2    1    3 1
     3    1    4 1
     4    1    8 1
     5    4   32 1
     6    5    6 2
     7    5    7 1
     8    5    8 1
     9    5   12 1
    10    9   10 2
    11    9   11 1
    12    9   12 1
    13    9   13 1
    14   13   14 1
    15   14   15 1
    16   14   33 1
    17   14   34 1
    18   15   16 1
    19   15   17 1
    20   15   35 1
    21   16   21 1
    22   17   18 1
    23   17   19 1
    24   17   36 1
    25   18   37 1
    26   19   20 1
    27   19   21 1
    28   19   38 1
    29   20   39 1
    30   21   22 1
    31   21   40 1
    32   22   23 ar
    33   22   31 ar
    34   23   24 ar
    35   23   41 1
    36   24   25 ar
    37   25   26 ar
    38   25   31 ar
    39   26   27 2
    40   26   28 ar
    41   27   42 1
    42   28   29 ar
    43   28   44 1
    44   29   30 ar
    45   29   43 1
    46   30   31 ar
@<TRIPOS>SUBSTRUCTURE
     1 ATP         1 GROUP 0 A     ****
@<TRIPOS>MOLECULE
[[[3,4-dihydroxy-5-(6-imino-1~{H}-purin-9-yl)tetrahydrofuran-2-yl]methoxy-oxido-phosphoryl]oxy-oxido-phosphoryl] hydrogen phosphate
   44    46     1     0     0
SMALL
USER_CHARGES

@<TRIPOS>ATOM
      1 PG         -2.1432    5.5617   -2.0490 P.3       1 ATP         1.5257
      2 O1G        -2.3790    4.1029   -2.3711 O.co2     1 ATP        -0.8737
      3 O2G        -0.7509    6.0796   -1.7641 O.co2     1 ATP        -0.8737
      4 O3G        -2.8003    6.4681   -3.2375 O.3       1 ATP        -0.7971
      5 PB         -3.1388    5.5294    0.7351 P.3       1 ATP         1.6824
      6 O1B        -1.7561    5.7384    1.3112 O.co2     1 ATP        -0.8925
      7 O2B        -4.3640    6.1043    1.4104 O.co2     1 ATP        -0.8925
      8 O3B        -3.1318    6.0026   -0.8275 O.3       1 ATP        -0.8047
      9 PA         -3.5002    2.7198    1.5899 P.3       1 ATP         1.5908
     10 O1A        -3.5694    1.4028    0.8475 O.co2     1 ATP        -0.8932
     11 O2A        -4.5647    3.0969    2.5970 O.co2     1 ATP        -0.8932
     12 O3A        -3.3718    3.9308    0.5005 O.3       1 ATP        -0.8088
     13 O5'        -2.0401    2.8620    2.3128 O.3       1 ATP        -0.5646
     14 C5'        -0.8811    2.4285    1.6206 C.3       1 ATP         0.2204
     15 C4'        -0.1994    1.3333    2.4288 C.3       1 ATP         0.0965
     16 O4'        -1.1285    0.2356    2.5840 O.3       1 ATP        -0.3907
     17 C3'         1.0324    0.7610    1.7344 C.3       1 ATP         0.0763
     18 O3'         1.9175    0.2377    2.7247 O.3       1 ATP        -0.5884
     19 C2'         0.4468   -0.3802    0.9263 C.3       1 ATP         0.0784
     20 O2'         1.3993   -1.3703    0.5961 O.3       1 ATP        -0.6085
     21 C1'        -0.6159   -0.9100    1.8769 C.3       1 ATP         0.2186
     22 N9         -1.7127   -1.6108    1.2130 N.pl3     1 ATP        -0.1699
     23 C8         -1.6202   -2.3321    0.0482 C.ar      1 ATP         0.4438
     24 N7         -2.7754   -2.8539   -0.3142 N.2       1 ATP        -0.6280
     25 C5         -3.6439   -2.4502    0.6592 C.ar      1 ATP         0.2109
     26 C6         -5.0563   -2.7308    0.7745 C.ar      1 ATP         0.6180
     27 N6         -5.6468   -3.4480   -0.1158 N.2       1 ATP        -0.8319
     28 N1         -5.5549   -2.1241    1.9191 N.pl3     1 ATP        -0.8664
     29 C2         -4.8068   -1.3637    2.8153 C.ar      1 ATP         0.5952
     30 N3         -3.5318   -1.0957    2.7338 N.2       1 ATP        -0.5599
     31 C4         -3.0130   -1.6778    1.6196 C.ar      1 ATP         0.0076
     32 HOG3       -2.7300    7.4444   -3.1732 H         1 ATP         0.4101
     33 H5'1       -1.1767    2.0502    0.6368 H         1 ATP         0.0364
     34 H5'2       -0.2080    3.2814    1.4876 H         1 ATP         0.0364
     35 H4'         0.0403    1.7078    3.4343 H         1 ATP         0.0945
     36 H3'         1.5907    1.4859    1.1353 H         1 ATP         0.0703
     37 HO3'        2.6839   -0.1150    2.2479 H         1 ATP         0.4099
     38 H2'        -0.0017    0.0018    0.0005 H         1 ATP         0.0676
     39 HO2'        2.0953   -0.9375    0.0709 H         1 ATP         0.4291
     40 H1'        -0.1998   -1.6319    2.6178 H         1 ATP         0.0950
     41 H8         -0.6865   -2.4395   -0.4871 H         1 ATP         0.1135
     42 HN62       -6.6394   -3.5426    0.1257 H         1 ATP         0.3588
     43 H2         -5.4125   -0.9811    3.6517 H         1 ATP         0.0302
     44 H44        -6.5442   -2.2475    2.1195 H         1 ATP         0.4215
@<TRIPOS>BOND
     1    1    2 2
     2    1    3 1
     3    1    4 1
     4    1    8 1
     5    4   32 1
     6    5    6 2
     7    5    7 1
     8    5    8 1
     9    5   12 1
    10    9   10 2
    11    9   11 1
    12    9   12 1
    13    9   13 1
    14   13   14 1
    15   14   15 1
    16   14   33 1
    17   14   34 1
    18   15   16 1
    19   15   17 1
    20   15   35 1
    21   16   21 1
    22   17   18 1
    23   17   19 1
    24   17   36 1
    25   18   37 1
    26   19   20 1
    27   19   21 1
    28   19   38 1
    29   20   39 1
    30   21   22 1
    31   21   40 1
    32   22   23 ar
    33   22   31 ar
    34   23   24 ar
    35   23   41 1
    36   24   25 ar
    37   25   26 ar
    38   25   31 ar
    39   26   27 2
    40   26   28 ar
    41   27   42 1
    42   28   29 ar
    43   28   44 1
    44   29   30 ar
    45   29   43 1
    46   30   31 ar
@<TRIPOS>SUBSTRUCTURE
     1 ATP         1 GROUP 0 A     ****
@<TRIPOS>MOLECULE
[[[3,4-dihydroxy-5-(6-imino-1~{H}-purin-9-yl)tetrahydrofuran-2-yl]methoxy-oxido-phosphoryl]oxy-oxido-phosphoryl] hydrogen phosphate
   44    46     1     0     0
SMALL
USER_CHARGES

@<TRIPOS>ATOM
      1 PG          8.3180    2.6488   -4.4639 P.3       1 ATP         1.5257
      2 O1G         7.6591    2.4990   -5.8170 O.co2     1 ATP        -0.8737
      3 O2G         9.2388    1.5769   -3.9248 O.co2     1 ATP        -0.8737
      4 O3G         9.1079    4.0774   -4.4271 O.3       1 ATP        -0.7971
      5 PB          6.0246    4.1336   -3.3327 P.3       1 ATP         1.6824
      6 O1B         6.7003    5.4807   -3.2059 O.co2     1 ATP        -0.8925
      7 O2B         5.0369    3.8541   -4.4435 O.co2     1 ATP        -0.8925
      8 O3B         7.1718    2.9720   -3.3478 O.3       1 ATP        -0.8047
      9 PA          5.9684    3.7219   -0.4031 P.3       1 ATP         1.5908
     10 O1A         6.3633    5.1276   -0.0051 O.co2     1 ATP        -0.8932
     11 O2A         6.9719    2.5908   -0.3452 O.co2     1 ATP        -0.8932
     12 O3A         5.3259    3.7621   -1.9049 O.3       1 ATP        -0.8088
     13 O5'         4.6405    3.2699    0.4378 O.3       1 ATP        -0.5646
     14 C5'         4.0922    1.9801    0.2227 C.3       1 ATP         0.2204
     15 C4'         2.5944    2.0310    0.4653 C.3       1 ATP         0.0965
     16 O4'         1.9327    2.5740   -0.6889 O.3       1 ATP        -0.3907
     17 C3'         1.9685    0.6634    0.6767 C.3       1 ATP         0.0763
     18 O3'         2.1425    0.1975    1.9977 O.3       1 ATP        -0.5884
     19 C2'         0.5176    0.9128    0.3099 C.3       1 ATP         0.0784
     20 O2'        -0.2103    1.4454    1.4152 O.3       1 ATP        -0.6085
     21 C1'         0.6219    1.9765   -0.7844 C.3       1 ATP         0.2186
     22 N9          0.4237    1.4496   -2.1357 N.pl3     1 ATP        -0.1699
     23 C8          1.4069    0.9710   -2.9662 C.ar      1 ATP         0.4438
     24 N7          0.9316    0.5623   -4.1260 N.2       1 ATP        -0.6280
     25 C5         -0.4120    0.7884   -4.0344 C.ar      1 ATP         0.2109
     26 C6         -1.4353    0.5283   -5.0204 C.ar      1 ATP         0.6180
     27 N6         -1.1199    0.0176   -6.1586 N.2       1 ATP        -0.8319
     28 N1         -2.6704    0.9095   -4.5147 N.pl3     1 ATP        -0.8664
     29 C2         -2.8863    1.4571   -3.2520 C.ar      1 ATP         0.5952
     30 N3         -1.9805    1.7017   -2.3442 N.2       1 ATP        -0.5599
     31 C4         -0.7561    1.3381   -2.8112 C.ar      1 ATP         0.0076
     32 HOG3        9.5903    4.3231   -3.6091 H         1 ATP         0.4101
     33 H5'1        4.3028    1.6728   -0.8066 H         1 ATP         0.0364
     34 H5'2        4.5677    1.2738    0.9106 H         1 ATP         0.0364
     35 H4'         2.3752    2.7029    1.3156 H         1 ATP         0.0945
     36 H3'         2.4336   -0.1217   -0.0015 H         1 ATP         0.0703
     37 HO3'        1.7138    0.8467    2.5755 H         1 ATP         0.4099
     38 H2'         0.0316    0.0155   -0.0339 H         1 ATP         0.0676
     39 HO2'       -1.1270    1.5823    1.1180 H         1 ATP         0.4291
     40 H1'        -0.1474    2.7798   -0.6651 H         1 ATP         0.0950
     41 H8          2.4466    0.9468   -2.6694 H         1 ATP         0.1135
     42 HN62       -1.9661   -0.0965   -6.7275 H         1 ATP         0.3588
     43 H2         -3.9481    1.6825   -3.0660 H         1 ATP         0.0302
     44 H44        -3.4814    0.7753   -5.1133 H         1 ATP         0.4215
@<TRIPOS>BOND
     1    1    2 2
     2    1    3 1
     3    1    4 1
     4    1    8 1
     5    4   32 1
     6    5    6 2
     7    5    7 1
     8    5    8 1
     9    5   12 1
    10    9   10 2
    11    9   11 1
    12    9   12 1
    13    9   13 1
    14   13   14 1
    15   14   15 1
    16   14   33 1
    17   14   34 1
    18   15   16 1
    19   15   17 1
    20   15   35 1
    21   16   21 1
    22   17   18 1
    23   17   19 1
    24   17   36 1
    25   18   37 1
    26   19   20 1
    27   19   21 1
    28   19   38 1
    29   20   39 1
    30   21   22 1
    31   21   40 1
    32   22   23 ar
    33   22   31 ar
    34   23   24 ar
    35   23   41 1
    36   24   25 ar
    37   25   26 ar
    38   25   31 ar
    39   26   27 2
    40   26   28 ar
    41   27   42 1
    42   28   29 ar
    43   28   44 1
    44   29   30 ar
    45   29   43 1
    46   30   31 ar
@<TRIPOS>SUBSTRUCTURE
     1 ATP         1 GROUP 0 A     ****
@<TRIPOS>MOLECULE
[[[3,4-dihydroxy-5-(6-imino-1~{H}-purin-9-yl)tetrahydrofuran-2-yl]methoxy-oxido-phosphoryl]oxy-oxido-phosphoryl] hydrogen phosphate
   44    46     1     0     0
SMALL
USER_CHARGES

@<TRIPOS>ATOM
      1 PG          5.2229    2.6776    5.0301 P.3       1 ATP         1.5257
      2 O1G         6.1720    1.7556    4.2976 O.co2     1 ATP        -0.8737
      3 O2G         3.7592    2.3271    5.1798 O.co2     1 ATP        -0.8737
      4 O3G         5.8369    2.9833    6.5118 O.3       1 ATP        -0.7971
      5 PB          4.9331    4.7250    2.9164 P.3       1 ATP         1.6824
      6 O1B         3.4944    4.3469    2.6431 O.co2     1 ATP        -0.8925
      7 O2B         5.4070    6.1546    2.7784 O.co2     1 ATP        -0.8925
      8 O3B         5.3457    4.1774    4.3981 O.3       1 ATP        -0.8047
      9 PA          6.0980    3.6799    0.4052 P.3       1 ATP         1.5908
     10 O1A         7.0185    2.5227    0.0832 O.co2     1 ATP        -0.8932
     11 O2A         6.3952    5.0713   -0.1100 O.co2     1 ATP        -0.8932
     12 O3A         5.9053    3.7626    2.0257 O.3       1 ATP        -0.8088
     13 O5'         4.5670    3.2937   -0.0211 O.3       1 ATP        -0.5646
     14 C5'         4.0922    1.9801    0.2227 C.3       1 ATP         0.2204
     15 C4'         2.5944    2.0310    0.4653 C.3       1 ATP         0.0965
     16 O4'         1.9327    2.5740   -0.6889 O.3       1 ATP        -0.3907
     17 C3'         1.9685    0.6634    0.6767 C.3       1 ATP         0.0763
     18 O3'         2.1425    0.1975    1.9977 O.3       1 ATP        -0.5884
     19 C2'         0.5176    0.9128    0.3099 C.3       1 ATP         0.0784
     20 O2'        -0.2103    1.4454    1.4152 O.3       1 ATP        -0.6085
     21 C1'         0.6219    1.9765   -0.7844 C.3       1 ATP         0.2186
     22 N9          0.4237    1.4496   -2.1357 N.pl3     1 ATP        -0.1699
     23 C8          1.4069    0.9710   -2.9662 C.ar      1 ATP         0.4438
     24 N7          0.9316    0.5623   -4.1260 N.2       1 ATP        -0.6280
     25 C5         -0.4120    0.7884   -4.0344 C.ar      1 ATP         0.2109
     26 C6         -1.4353    0.5283   -5.0204 C.ar      1 ATP         0.6180
     27 N6         -1.1199    0.0176   -6.1586 N.2       1 ATP        -0.8319
     28 N1         -2.6704    0.9095   -4.5147 N.pl3     1 ATP        -0.8664
     29 C2         -2.8863    1.4571   -3.2520 C.ar      1 ATP         0.5952
     30 N3         -1.9805    1.7017   -2.3442 N.2       1 ATP        -0.5599
     31 C4         -0.7561    1.3381   -2.8112 C.ar      1 ATP         0.0076
     32 HOG3        5.3329    3.5713    7.1139 H         1 ATP         0.4101
     33 H5'1        4.3179    1.3548   -0.6470 H         1 ATP         0.0364
     34 H5'2        4.6083    1.5737    1.0983 H         1 ATP         0.0364
     35 H4'         2.3752    2.7029    1.3156 H         1 ATP         0.0945
     36 H3'         2.4336   -0.1217   -0.0015 H         1 ATP         0.0703
     37 HO3'        3.0987    0.1465    2.1461 H         1 ATP         0.4099
     38 H2'         0.0316    0.0155   -0.0339 H         1 ATP         0.0676
     39 HO2'       -0.1608    0.7921    2.1351 H         1 ATP         0.4291
     40 H1'        -0.1474    2.7798   -0.6651 H         1 ATP         0.0950
     41 H8          2.4466    0.9468   -2.6694 H         1 ATP         0.1135
     42 HN62       -1.9661   -0.0965   -6.7275 H         1 ATP         0.3588
     43 H2         -3.9481    1.6825   -3.0660 H         1 ATP         0.0302
     44 H44        -3.4814    0.7753   -5.1133 H         1 ATP         0.4215
@<TRIPOS>BOND
     1    1    2 2
     2    1    3 1
     3    1    4 1
     4    1    8 1
     5    4   32 1
     6    5    6 2
     7    5    7 1
     8    5    8 1
     9    5   12 1
    10    9   10 2
    11    9   11 1
    12    9   12 1
    13    9   13 1
    14   13   14 1
    15   14   15 1
    16   14   33 1
    17   14   34 1
    18   15   16 1
    19   15   17 1
    20   15   35 1
    21   16   21 1
    22   17   18 1
    23   17   19 1
    24   17   36 1
    25   18   37 1
    26   19   20 1
    27   19   21 1
    28   19   38 1
    29   20   39 1
    30   21   22 1
    31   21   40 1
    32   22   23 ar
    33   22   31 ar
    34   23   24 ar
    35   23   41 1
    36   24   25 ar
    37   25   26 ar
    38   25   31 ar
    39   26   27 2
    40   26   28 ar
    41   27   42 1
    42   28   29 ar
    43   28   44 1
    44   29   30 ar
    45   29   43 1
    46   30   31 ar
@<TRIPOS>SUBSTRUCTURE
     1 ATP         1 GROUP 0 A     ****
@<TRIPOS>MOLECULE
[[[3,4-dihydroxy-5-(6-imino-1~{H}-purin-9-yl)tetrahydrofuran-2-yl]methoxy-oxido-phosphoryl]oxy-oxido-phosphoryl] hydrogen phosphate
   44    46     1     0     0
SMALL
USER_CHARGES

@<TRIPOS>ATOM
      1 PG         -0.4866    6.5134   -1.2138 P.3       1 ATP         1.5257
      2 O1G        -1.3515    5.4259   -1.8109 O.co2     1 ATP        -0.8737
      3 O2G         0.9811    6.2751   -0.9367 O.co2     1 ATP        -0.8737
      4 O3G        -0.6292    7.8540   -2.1349 O.3       1 ATP        -0.7971
      5 PB         -1.4590    6.3221    1.5722 P.3       1 ATP         1.6824
      6 O1B        -0.1477    5.7567    2.0702 O.co2     1 ATP        -0.8925
      7 O2B        -2.3057    7.2221    2.4444 O.co2     1 ATP        -0.8925
      8 O3B        -1.1976    7.0713    0.1453 O.3       1 ATP        -0.8047
      9 PA         -3.0798    3.8627    1.8536 P.3       1 ATP         1.5908
     10 O1A        -3.7210    2.9153    0.8628 O.co2     1 ATP        -0.8932
     11 O2A        -3.8819    4.4464    2.9962 O.co2     1 ATP        -0.8932
     12 O3A        -2.3871    5.0930    1.0312 O.3       1 ATP        -0.8088
     13 O5'        -1.7336    3.1724    2.4750 O.3       1 ATP        -0.5646
     14 C5'        -0.8811    2.4285    1.6206 C.3       1 ATP         0.2204
     15 C4'        -0.1994    1.3333    2.4288 C.3       1 ATP         0.0965
     16 O4'        -1.1285    0.2356    2.5840 O.3       1 ATP        -0.3907
     17 C3'         1.0324    0.7610    1.7344 C.3       1 ATP         0.0763
     18 O3'         1.9175    0.2377    2.7247 O.3       1 ATP        -0.5884
     19 C2'         0.4468   -0.3802    0.9263 C.3       1 ATP         0.0784
     20 O2'         1.3993   -1.3703    0.5961 O.3       1 ATP        -0.6085
     21 C1'        -0.6159   -0.9100    1.8769 C.3       1 ATP         0.2186
     22 N9         -1.7127   -1.6108    1.2130 N.pl3     1 ATP        -0.1699
     23 C8         -2.0868   -2.9137    1.4327 C.ar      1 ATP         0.4438
     24 N7         -3.1125   -3.2756    0.6878 N.2       1 ATP        -0.6280
     25 C5         -3.4079   -2.1580   -0.0391 C.ar      1 ATP         0.2109
     26 C6         -4.4483   -1.9775   -1.0249 C.ar      1 ATP         0.6180
     27 N6         -5.2418   -2.9492   -1.3113 N.2       1 ATP        -0.8319
     28 N1         -4.3937   -0.6823   -1.5211 N.pl3     1 ATP        -0.8664
     29 C2         -3.4770    0.2901   -1.1271 C.ar      1 ATP         0.5952
     30 N3         -2.5289    0.1525   -0.2402 N.2       1 ATP        -0.5599
     31 C4         -2.5564   -1.1096    0.2655 C.ar      1 ATP         0.0076
     32 HOG3       -0.1245    8.6543   -1.8760 H         1 ATP         0.4101
     33 H5'1       -1.4800    1.9927    0.8146 H         1 ATP         0.0364
     34 H5'2       -0.1367    3.1040    1.1872 H         1 ATP         0.0364
     35 H4'         0.0403    1.7078    3.4343 H         1 ATP         0.0945
     36 H3'         1.5907    1.4859    1.1353 H         1 ATP         0.0703
     37 HO3'        2.6839   -0.1150    2.2479 H         1 ATP         0.4099
     38 H2'        -0.0017    0.0018    0.0005 H         1 ATP         0.0676
     39 HO2'        2.0953   -0.9375    0.0709 H         1 ATP         0.4291
     40 H1'        -0.1998   -1.6319    2.6178 H         1 ATP         0.0950
     41 H8         -1.5740   -3.5449    2.1457 H         1 ATP         0.1135
     42 HN62       -5.9117   -2.6433   -2.0256 H         1 ATP         0.3588
     43 H2         -3.6225    1.2454   -1.6553 H         1 ATP         0.0302
     44 H44        -5.0794   -0.4231   -2.2258 H         1 ATP         0.4215
@<TRIPOS>BOND
     1    1    2 2
     2    1    3 1
     3    1    4 1
     4    1    8 1
     5    4   32 1
     6    5    6 2
     7    5    7 1
     8    5    8 1
     9    5   12 1
    10    9   10 2
    11    9   11 1
    12    9   12 1
    13    9   13 1
    14   13   14 1
    15   14   15 1
    16   14   33 1
    17   14   34 1
    18   15   16 1
    19   15   17 1
    20   15   35 1
    21   16   21 1
    22   17   18 1
    23   17   19 1
    24   17   36 1
    25   18   37 1
    26   19   20 1
    27   19   21 1
    28   19   38 1
    29   20   39 1
    30   21   22 1
    31   21   40 1
    32   22   23 ar
    33   22   31 ar
    34   23   24 ar
    35   23   41 1
    36   24   25 ar
    37   25   26 ar
    38   25   31 ar
    39   26   27 2
    40   26   28 ar
    41   27   42 1
    42   28   29 ar
    43   28   44 1
    44   29   30 ar
    45   29   43 1
    46   30   31 ar
@<TRIPOS>SUBSTRUCTURE
     1 ATP         1 GROUP 0 A     ****
@<TRIPOS>MOLECULE
[[[3,4-dihydroxy-5-(6-imino-1~{H}-purin-9-yl)tetrahydrofuran-2-yl]methoxy-oxido-phosphoryl]oxy-oxido-phosphoryl] hydrogen phosphate
   44    46     1     0     0
SMALL
USER_CHARGES

@<TRIPOS>ATOM
      1 PG         -1.1515    8.6515    0.8128 P.3       1 ATP         1.5257
      2 O1G         0.2383    8.5785    1.4049 O.co2     1 ATP        -0.8737
      3 O2G        -2.1947    9.5819    1.3906 O.co2     1 ATP        -0.8737
      4 O3G        -1.0188    8.9509   -0.7868 O.3       1 ATP        -0.7971
      5 PB         -2.2026    6.1237    1.9304 P.3       1 ATP         1.6824
      6 O1B        -0.9562    5.6996    2.6748 O.co2     1 ATP        -0.8925
      7 O2B        -3.3915    6.7064    2.6614 O.co2     1 ATP        -0.8925
      8 O3B        -1.7738    7.1449    0.7309 O.3       1 ATP        -0.8047
      9 PA         -3.3161    3.4234    1.4576 P.3       1 ATP         1.5908
     10 O1A        -3.5064    2.5741    0.2195 O.co2     1 ATP        -0.8932
     11 O2A        -4.4616    3.6587    2.4178 O.co2     1 ATP        -0.8932
     12 O3A        -2.7135    4.8751    1.0113 O.3       1 ATP        -0.8088
     13 O5'        -2.0401    2.8620    2.3128 O.3       1 ATP        -0.5646
     14 C5'        -0.8811    2.4285    1.6206 C.3       1 ATP         0.2204
     15 C4'        -0.1994    1.3333    2.4288 C.3       1 ATP         0.0965
     16 O4'        -1.1285    0.2356    2.5840 O.3       1 ATP        -0.3907
     17 C3'         1.0324    0.7610    1.7344 C.3       1 ATP         0.0763
     18 O3'         1.9175    0.2377    2.7247 O.3       1 ATP        -0.5884
     19 C2'         0.4468   -0.3802    0.9263 C.3       1 ATP         0.0784
     20 O2'         1.3993   -1.3703    0.5961 O.3       1 ATP        -0.6085
     21 C1'        -0.6159   -0.9100    1.8769 C.3       1 ATP         0.2186
     22 N9         -1.7127   -1.6108    1.2130 N.pl3     1 ATP        -0.1699
     23 C8         -3.0370   -1.2489    1.2455 C.ar      1 ATP         0.4438
     24 N7         -3.8008   -2.0709    0.5534 N.2       1 ATP        -0.6280
     25 C5         -2.9295   -2.9976    0.0567 C.ar      1 ATP         0.2109
     26 C6         -3.2152   -4.1411   -0.7786 C.ar      1 ATP         0.6180
     27 N6         -4.4238   -4.3865   -1.1456 N.2       1 ATP        -0.8319
     28 N1         -2.0349   -4.8186   -1.0521 N.pl3     1 ATP        -0.8664
     29 C2         -0.7728   -4.4501   -0.5916 C.ar      1 ATP         0.5952
     30 N3         -0.4885   -3.4234    0.1630 N.2       1 ATP        -0.5599
     31 C4         -1.6274   -2.7377    0.4492 C.ar      1 ATP         0.0076
     32 HOG3       -1.8404    9.0274   -1.3172 H         1 ATP         0.4101
     33 H5'1       -1.1767    2.0502    0.6368 H         1 ATP         0.0364
     34 H5'2       -0.2080    3.2814    1.4876 H         1 ATP         0.0364
     35 H4'         0.0403    1.7078    3.4343 H         1 ATP         0.0945
     36 H3'         1.5907    1.4859    1.1353 H         1 ATP         0.0703
     37 HO3'        2.1521    0.9800    3.3017 H         1 ATP         0.4099
     38 H2'        -0.0017    0.0018    0.0005 H         1 ATP         0.0676
     39 HO2'        1.7495   -1.7243    1.4324 H         1 ATP         0.4291
     40 H1'        -0.1998   -1.6319    2.6178 H         1 ATP         0.0950
     41 H8         -3.3806   -0.3795    1.7893 H         1 ATP         0.1135
     42 HN62       -4.4384   -5.2300   -1.7295 H         1 ATP         0.3588
     43 H2          0.0180   -5.1355   -0.9348 H         1 ATP         0.0302
     44 H44        -2.0977   -5.6477   -1.6374 H         1 ATP         0.4215
@<TRIPOS>BOND
     1    1    2 2
     2    1    3 1
     3    1    4 1
     4    1    8 1
     5    4   32 1
     6    5    6 2
     7    5    7 1
     8    5    8 1
     9    5   12 1
    10    9   10 2
    11    9   11 1
    12    9   12 1
    13    9   13 1
    14   13   14 1
    15   14   15 1
    16   14   33 1
    17   14   34 1
    18   15   16 1
    19   15   17 1
    20   15   35 1
    21   16   21 1
    22   17   18 1
    23   17   19 1
    24   17   36 1
    25   18   37 1
    26   19   20 1
    27   19   21 1
    28   19   38 1
    29   20   39 1
    30   21   22 1
    31   21   40 1
    32   22   23 ar
    33   22   31 ar
    34   23   24 ar
    35   23   41 1
    36   24   25 ar
    37   25   26 ar
    38   25   31 ar
    39   26   27 2
    40   26   28 ar
    41   27   42 1
    42   28   29 ar
    43   28   44 1
    44   29   30 ar
    45   29   43 1
    46   30   31 ar
@<TRIPOS>SUBSTRUCTURE
     1 ATP         1 GROUP 0 A     ****
@<TRIPOS>MOLECULE
[[[3,4-dihydroxy-5-(6-imino-1~{H}-purin-9-yl)tetrahydrofuran-2-yl]methoxy-oxido-phosphoryl]oxy-oxido-phosphoryl] hydrogen phosphate
   44    46     1     0     0
SMALL
USER_CHARGES

@<TRIPOS>ATOM
      1 PG         10.3831    1.1566    0.3454 P.3       1 ATP         1.5257
      2 O1G        10.8259    0.5369    1.6520 O.co2     1 ATP        -0.8737
      3 O2G        10.6819    2.6057    0.0317 O.co2     1 ATP        -0.8737
      4 O3G        10.9413    0.2349   -0.8813 O.3       1 ATP        -0.7971
      5 PB          7.9428   -0.5068    0.1984 P.3       1 ATP         1.6824
      6 O1B         8.3558   -1.3661   -0.9757 O.co2     1 ATP        -0.8925
      7 O2B         7.9795   -1.0424    1.6124 O.co2     1 ATP        -0.8925
      8 O3B         8.7852    0.8908    0.1461 O.3       1 ATP        -0.8047
      9 PA          5.8979    0.9309   -1.3848 P.3       1 ATP         1.5908
     10 O1A         5.9209    0.0232   -2.5956 O.co2     1 ATP        -0.8932
     11 O2A         6.5856    2.2784   -1.4151 O.co2     1 ATP        -0.8932
     12 O3A         6.4552    0.0987   -0.0938 O.3       1 ATP        -0.8088
     13 O5'         4.3516    1.1575   -0.9026 O.3       1 ATP        -0.5646
     14 C5'         4.0922    1.9801    0.2227 C.3       1 ATP         0.2204
     15 C4'         2.5944    2.0310    0.4653 C.3       1 ATP         0.0965
     16 O4'         1.9327    2.5740   -0.6889 O.3       1 ATP        -0.3907
     17 C3'         1.9685    0.6634    0.6767 C.3       1 ATP         0.0763
     18 O3'         2.1425    0.1975    1.9977 O.3       1 ATP        -0.5884
     19 C2'         0.5176    0.9128    0.3099 C.3       1 ATP         0.0784
     20 O2'        -0.2103    1.4454    1.4152 O.3       1 ATP        -0.6085
     21 C1'         0.6219    1.9765   -0.7844 C.3       1 ATP         0.2186
     22 N9          0.4237    1.4496   -2.1357 N.pl3     1 ATP        -0.1699
     23 C8          1.4069    0.9710   -2.9662 C.ar      1 ATP         0.4438
     24 N7          0.9316    0.5623   -4.1260 N.2       1 ATP        -0.6280
     25 C5         -0.4120    0.7884   -4.0344 C.ar      1 ATP         0.2109
     26 C6         -1.4353    0.5283   -5.0204 C.ar      1 ATP         0.6180
     27 N6         -1.1199    0.0176   -6.1586 N.2       1 ATP        -0.8319
     28 N1         -2.6704    0.9095   -4.5147 N.pl3     1 ATP        -0.8664
     29 C2         -2.8863    1.4571   -3.2520 C.ar      1 ATP         0.5952
     30 N3         -1.9805    1.7017   -2.3442 N.2       1 ATP        -0.5599
     31 C4         -0.7561    1.3381   -2.8112 C.ar      1 ATP         0.0076
     32 HOG3       10.7358    0.5073   -1.8010 H         1 ATP         0.4101
     33 H5'1        4.6069    1.5618    1.0936 H         1 ATP         0.0364
     34 H5'2        4.4824    2.9837    0.0254 H         1 ATP         0.0364
     35 H4'         2.3752    2.7029    1.3156 H         1 ATP         0.0945
     36 H3'         2.4336   -0.1217   -0.0015 H         1 ATP         0.0703
     37 HO3'        1.7160   -0.6716    2.0397 H         1 ATP         0.4099
     38 H2'         0.0316    0.0155   -0.0339 H         1 ATP         0.0676
     39 HO2'       -1.1270    1.5823    1.1180 H         1 ATP         0.4291
     40 H1'        -0.1474    2.7798   -0.6651 H         1 ATP         0.0950
     41 H8          2.4466    0.9468   -2.6694 H         1 ATP         0.1135
     42 HN62       -1.9661   -0.0965   -6.7275 H         1 ATP         0.3588
     43 H2         -3.9481    1.6825   -3.0660 H         1 ATP         0.0302
     44 H44        -3.4814    0.7753   -5.1133 H         1 ATP         0.4215
@<TRIPOS>BOND
     1    1    2 2
     2    1    3 1
     3    1    4 1
     4    1    8 1
     5    4   32 1
     6    5    6 2
     7    5    7 1
     8    5    8 1
     9    5   12 1
    10    9   10 2
    11    9   11 1
    12    9   12 1
    13    9   13 1
    14   13   14 1
    15   14   15 1
    16   14   33 1
    17   14   34 1
    18   15   16 1
    19   15   17 1
    20   15   35 1
    21   16   21 1
    22   17   18 1
    23   17   19 1
    24   17   36 1
    25   18   37 1
    26   19   20 1
    27   19   21 1
    28   19   38 1
    29   20   39 1
    30   21   22 1
    31   21   40 1
    32   22   23 ar
    33   22   31 ar
    34   23   24 ar
    35   23   41 1
    36   24   25 ar
    37   25   26 ar
    38   25   31 ar
    39   26   27 2
    40   26   28 ar
    41   27   42 1
    42   28   29 ar
    43   28   44 1
    44   29   30 ar
    45   29   43 1
    46   30   31 ar
@<TRIPOS>SUBSTRUCTURE
     1 ATP         1 GROUP 0 A     ****
@<TRIPOS>MOLECULE
[[[3,4-dihydroxy-5-(6-imino-1~{H}-purin-9-yl)tetrahydrofuran-2-yl]methoxy-oxido-phosphoryl]oxy-oxido-phosphoryl] hydrogen phosphate
   44    46     1     0     0
SMALL
USER_CHARGES

@<TRIPOS>ATOM
      1 PG         -2.4958    7.6633   -1.9037 P.3       1 ATP         1.5257
      2 O1G        -2.6373    6.9754   -3.2432 O.co2     1 ATP        -0.8737
      3 O2G        -1.4271    8.7091   -1.6760 O.co2     1 ATP        -0.8737
      4 O3G        -3.9415    8.3015   -1.4931 O.3       1 ATP        -0.7971
      5 PB         -2.3698    6.7018    0.8897 P.3       1 ATP         1.6824
      6 O1B        -1.0971    7.4141    1.2902 O.co2     1 ATP        -0.8925
      7 O2B        -3.7238    7.2063    1.3369 O.co2     1 ATP        -0.8925
      8 O3B        -2.3852    6.5306   -0.7339 O.3       1 ATP        -0.8047
      9 PA         -2.1561    4.4278    2.7707 P.3       1 ATP         1.5908
     10 O1A        -3.4710    4.6479    3.4867 O.co2     1 ATP        -0.8932
     11 O2A        -0.8475    4.8296    3.4155 O.co2     1 ATP        -0.8932
     12 O3A        -2.2377    5.1262    1.2959 O.3       1 ATP        -0.8088
     13 O5'        -2.0401    2.8620    2.3128 O.3       1 ATP        -0.5646
     14 C5'        -0.8811    2.4285    1.6206 C.3       1 ATP         0.2204
     15 C4'        -0.1994    1.3333    2.4288 C.3       1 ATP         0.0965
     16 O4'        -1.1285    0.2356    2.5840 O.3       1 ATP        -0.3907
     17 C3'         1.0324    0.7610    1.7344 C.3       1 ATP         0.0763
     18 O3'         1.9175    0.2377    2.7247 O.3       1 ATP        -0.5884
     19 C2'         0.4468   -0.3802    0.9263 C.3       1 ATP         0.0784
     20 O2'         1.3993   -1.3703    0.5961 O.3       1 ATP        -0.6085
     21 C1'        -0.6159   -0.9100    1.8769 C.3       1 ATP         0.2186
     22 N9         -1.7127   -1.6108    1.2130 N.pl3     1 ATP        -0.1699
     23 C8         -1.7690   -2.9583    0.9549 C.ar      1 ATP         0.4438
     24 N7         -2.8827   -3.3076    0.3418 N.2       1 ATP        -0.6280
     25 C5         -3.5683   -2.1351    0.2017 C.ar      1 ATP         0.2109
     26 C6         -4.8617   -1.9185   -0.4044 C.ar      1 ATP         0.6180
     27 N6         -5.5166   -2.9094   -0.8993 N.2       1 ATP        -0.8319
     28 N1         -5.1837   -0.5701   -0.3344 N.pl3     1 ATP        -0.8664
     29 C2         -4.3821    0.4180    0.2330 C.ar      1 ATP         0.5952
     30 N3         -3.2117    0.2488    0.7860 N.2       1 ATP        -0.5599
     31 C4         -2.8672   -1.0657    0.7327 C.ar      1 ATP         0.0076
     32 HOG3       -4.7081    7.6972   -1.3962 H         1 ATP         0.4101
     33 H5'1       -1.1767    2.0502    0.6368 H         1 ATP         0.0364
     34 H5'2       -0.2080    3.2814    1.4876 H         1 ATP         0.0364
     35 H4'         0.0403    1.7078    3.4343 H         1 ATP         0.0945
     36 H3'         1.5907    1.4859    1.1353 H         1 ATP         0.0703
     37 HO3'        2.1521    0.9800    3.3017 H         1 ATP         0.4099
     38 H2'        -0.0017    0.0018    0.0005 H         1 ATP         0.0676
     39 HO2'        0.9369   -2.0558    0.0825 H         1 ATP         0.4291
     40 H1'        -0.1998   -1.6319    2.6178 H         1 ATP         0.0950
     41 H8         -0.9697   -3.6300    1.2371 H         1 ATP         0.1135
     42 HN62       -6.4060   -2.5723   -1.2840 H         1 ATP         0.3588
     43 H2         -4.8409    1.4176    0.1757 H         1 ATP         0.0302
     44 H44        -6.0768   -0.2826   -0.7263 H         1 ATP         0.4215
@<TRIPOS>BOND
     1    1    2 2
     2    1    3 1
     3    1    4 1
     4    1    8 1
     5    4   32 1
     6    5    6 2
     7    5    7 1
     8    5    8 1
     9    5   12 1
    10    9   10 2
    11    9   11 1
    12    9   12 1
    13    9   13 1
    14   13   14 1
    15   14   15 1
    16   14   33 1
    17   14   34 1
    18   15   16 1
    19   15   17 1
    20   15   35 1
    21   16   21 1
    22   17   18 1
    23   17   19 1
    24   17   36 1
    25   18   37 1
    26   19   20 1
    27   19   21 1
    28   19   38 1
    29   20   39 1
    30   21   22 1
    31   21   40 1
    32   22   23 ar
    33   22   31 ar
    34   23   24 ar
    35   23   41 1
    36   24   25 ar
    37   25   26 ar
    38   25   31 ar
    39   26   27 2
    40   26   28 ar
    41   27   42 1
    42   28   29 ar
    43   28   44 1
    44   29   30 ar
    45   29   43 1
    46   30   31 ar
@<TRIPOS>SUBSTRUCTURE
     1 ATP         1 GROUP 0 A     ****
@<TRIPOS>MOLECULE
[[[3,4-dihydroxy-5-(6-imino-1~{H}-purin-9-yl)tetrahydrofuran-2-yl]methoxy-oxido-phosphoryl]oxy-oxido-phosphoryl] hydrogen phosphate
   44    46     1     0     0
SMALL
USER_CHARGES

@<TRIPOS>ATOM
      1 PG         -5.2975    6.4721   -0.4800 P.3       1 ATP         1.5257
      2 O1G        -6.1340    6.1836   -1.7066 O.co2     1 ATP        -0.8737
      3 O2G        -4.7821    7.8664   -0.2010 O.co2     1 ATP        -0.8737
      4 O3G        -6.1082    5.9461    0.8361 O.3       1 ATP        -0.7971
      5 PB         -2.7606    5.2870   -1.4303 P.3       1 ATP         1.6824
      6 O1B        -3.2477    4.8317   -2.7879 O.co2     1 ATP        -0.8925
      7 O2B        -1.8954    6.5186   -1.2810 O.co2     1 ATP        -0.8925
      8 O3B        -4.0456    5.4260   -0.4328 O.3       1 ATP        -0.8047
      9 PA         -2.5569    2.5166   -0.4115 P.3       1 ATP         1.5908
     10 O1A        -2.7401    1.8113   -1.7379 O.co2     1 ATP        -0.8932
     11 O2A        -3.6908    2.5917    0.5877 O.co2     1 ATP        -0.8932
     12 O3A        -2.0190    4.0335   -0.6930 O.3       1 ATP        -0.8088
     13 O5'        -1.2434    1.9104    0.3515 O.3       1 ATP        -0.5646
     14 C5'        -0.8811    2.4285    1.6206 C.3       1 ATP         0.2204
     15 C4'        -0.1994    1.3333    2.4288 C.3       1 ATP         0.0965
     16 O4'        -1.1285    0.2356    2.5840 O.3       1 ATP        -0.3907
     17 C3'         1.0324    0.7610    1.7344 C.3       1 ATP         0.0763
     18 O3'         1.9175    0.2377    2.7247 O.3       1 ATP        -0.5884
     19 C2'         0.4468   -0.3802    0.9263 C.3       1 ATP         0.0784
     20 O2'         1.3993   -1.3703    0.5961 O.3       1 ATP        -0.6085
     21 C1'        -0.6159   -0.9100    1.8769 C.3       1 ATP         0.2186
     22 N9         -1.7127   -1.6108    1.2130 N.pl3     1 ATP        -0.1699
     23 C8         -2.8662   -1.0361    0.7388 C.ar      1 ATP         0.4438
     24 N7         -3.6774   -1.9166    0.1867 N.2       1 ATP        -0.6280
     25 C5         -3.0159   -3.1045    0.3122 C.ar      1 ATP         0.2109
     26 C6         -3.4377   -4.4169   -0.1199 C.ar      1 ATP         0.6180
     27 N6         -4.5720   -4.5691   -0.7080 N.2       1 ATP        -0.8319
     28 N1         -2.4600   -5.3463    0.2071 N.pl3     1 ATP        -0.8664
     29 C2         -1.2595   -5.0554    0.8515 C.ar      1 ATP         0.5952
     30 N3         -0.8555   -3.8803    1.2516 N.2       1 ATP        -0.5599
     31 C4         -1.7946   -2.9457    0.9448 C.ar      1 ATP         0.0076
     32 HOG3       -5.6933    6.0623    1.7173 H         1 ATP         0.4101
     33 H5'1       -0.2033    3.2760    1.4769 H         1 ATP         0.0364
     34 H5'2       -1.7841    2.7762    2.1323 H         1 ATP         0.0364
     35 H4'         0.0403    1.7078    3.4343 H         1 ATP         0.0945
     36 H3'         1.5907    1.4859    1.1353 H         1 ATP         0.0703
     37 HO3'        2.6839   -0.1150    2.2479 H         1 ATP         0.4099
     38 H2'        -0.0017    0.0018    0.0005 H         1 ATP         0.0676
     39 HO2'        0.9369   -2.0558    0.0825 H         1 ATP         0.4291
     40 H1'        -0.1998   -1.6319    2.6178 H         1 ATP         0.0950
     41 H8         -3.0558    0.0252    0.8256 H         1 ATP         0.1135
     42 HN62       -4.7047   -5.5592   -0.9421 H         1 ATP         0.3588
     43 H2         -0.6372   -5.9505    1.0077 H         1 ATP         0.0302
     44 H44        -2.6338   -6.3155   -0.0469 H         1 ATP         0.4215
@<TRIPOS>BOND
     1    1    2 2
     2    1    3 1
     3    1    4 1
     4    1    8 1
     5    4   32 1
     6    5    6 2
     7    5    7 1
     8    5    8 1
     9    5   12 1
    10    9   10 2
    11    9   11 1
    12    9   12 1
    13    9   13 1
    14   13   14 1
    15   14   15 1
    16   14   33 1
    17   14   34 1
    18   15   16 1
    19   15   17 1
    20   15   35 1
    21   16   21 1
    22   17   18 1
    23   17   19 1
    24   17   36 1
    25   18   37 1
    26   19   20 1
    27   19   21 1
    28   19   38 1
    29   20   39 1
    30   21   22 1
    31   21   40 1
    32   22   23 ar
    33   22   31 ar
    34   23   24 ar
    35   23   41 1
    36   24   25 ar
    37   25   26 ar
    38   25   31 ar
    39   26   27 2
    40   26   28 ar
    41   27   42 1
    42   28   29 ar
    43   28   44 1
    44   29   30 ar
    45   29   43 1
    46   30   31 ar
@<TRIPOS>SUBSTRUCTURE
     1 ATP         1 GROUP 0 A     ****
@<TRIPOS>MOLECULE
[[[3,4-dihydroxy-5-(6-imino-1~{H}-purin-9-yl)tetrahydrofuran-2-yl]methoxy-oxido-phosphoryl]oxy-oxido-phosphoryl] hydrogen phosphate
   44    46     1     0     0
SMALL
USER_CHARGES

@<TRIPOS>ATOM
      1 PG         -3.5275    6.1688   -2.4607 P.3       1 ATP         1.5257
      2 O1G        -4.6325    7.1640   -2.1847 O.co2     1 ATP        -0.8737
      3 O2G        -3.8217    4.8486   -3.1375 O.co2     1 ATP        -0.8737
      4 O3G        -2.3439    6.9255   -3.2927 O.3       1 ATP        -0.7971
      5 PB         -3.2043    5.1461    0.2949 P.3       1 ATP         1.6824
      6 O1B        -4.2631    6.0028    0.9526 O.co2     1 ATP        -0.8925
      7 O2B        -3.4531    3.6843   -0.0031 O.co2     1 ATP        -0.8925
      8 O3B        -2.7119    5.8833   -1.0761 O.3       1 ATP        -0.8047
      9 PA         -1.4709    4.7755    2.6641 P.3       1 ATP         1.5908
     10 O1A        -2.5003    5.3468    3.6150 O.co2     1 ATP        -0.8932
     11 O2A         0.0077    4.9865    2.9069 O.co2     1 ATP        -0.8932
     12 O3A        -1.8194    5.2782    1.1490 O.3       1 ATP        -0.8088
     13 O5'        -1.7336    3.1724    2.4750 O.3       1 ATP        -0.5646
     14 C5'        -0.8811    2.4285    1.6206 C.3       1 ATP         0.2204
     15 C4'        -0.1994    1.3333    2.4288 C.3       1 ATP         0.0965
     16 O4'        -1.1285    0.2356    2.5840 O.3       1 ATP        -0.3907
     17 C3'         1.0324    0.7610    1.7344 C.3       1 ATP         0.0763
     18 O3'         1.9175    0.2377    2.7247 O.3       1 ATP        -0.5884
     19 C2'         0.4468   -0.3802    0.9263 C.3       1 ATP         0.0784
     20 O2'         1.3993   -1.3703    0.5961 O.3       1 ATP        -0.6085
     21 C1'        -0.6159   -0.9100    1.8769 C.3       1 ATP         0.2186
     22 N9         -1.7127   -1.6108    1.2130 N.pl3     1 ATP        -0.1699
     23 C8         -2.5485   -1.0808    0.2609 C.ar      1 ATP         0.4438
     24 N7         -3.4476   -1.9486   -0.1593 N.2       1 ATP        -0.6280
     25 C5         -3.1762   -3.0816    0.5530 C.ar      1 ATP         0.2109
     26 C6         -3.8510   -4.3579    0.5006 C.ar      1 ATP         0.6180
     27 N6         -4.8468   -4.5293   -0.2961 N.2       1 ATP        -0.8319
     28 N1         -3.2499   -5.2342    1.3937 N.pl3     1 ATP        -0.8664
     29 C2         -2.1646   -4.9275    2.2116 C.ar      1 ATP         0.5952
     30 N3         -1.5382   -3.7840    2.2778 N.2       1 ATP        -0.5599
     31 C4         -2.1054   -2.9018    1.4120 C.ar      1 ATP         0.0076
     32 HOG3       -1.9022    7.6974   -2.8786 H         1 ATP         0.4101
     33 H5'1       -1.4800    1.9927    0.8146 H         1 ATP         0.0364
     34 H5'2       -0.1367    3.1040    1.1872 H         1 ATP         0.0364
     35 H4'         0.0403    1.7078    3.4343 H         1 ATP         0.0945
     36 H3'         1.5907    1.4859    1.1353 H         1 ATP         0.0703
     37 HO3'        2.1521    0.9800    3.3017 H         1 ATP         0.4099
     38 H2'        -0.0017    0.0018    0.0005 H         1 ATP         0.0676
     39 HO2'        0.9369   -2.0558    0.0825 H         1 ATP         0.4291
     40 H1'        -0.1998   -1.6319    2.6178 H         1 ATP         0.0950
     41 H8         -2.4515   -0.0599   -0.0829 H         1 ATP         0.1135
     42 HN62       -5.1990   -5.4882   -0.2005 H         1 ATP         0.3588
     43 H2         -1.8555   -5.7783    2.8388 H         1 ATP         0.0302
     44 H44        -3.6312   -6.1750    1.4526 H         1 ATP         0.4215
@<TRIPOS>BOND
     1    1    2 2
     2    1    3 1
     3    1    4 1
     4    1    8 1
     5    4   32 1
     6    5    6 2
     7    5    7 1
     8    5    8 1
     9    5   12 1
    10    9   10 2
    11    9   11 1
    12    9   12 1
    13    9   13 1
    14   13   14 1
    15   14   15 1
    16   14   33 1
    17   14   34 1
    18   15   16 1
    19   15   17 1
    20   15   35 1
    21   16   21 1
    22   17   18 1
    23   17   19 1
    24   17   36 1
    25   18   37 1
    26   19   20 1
    27   19   21 1
    28   19   38 1
    29   20   39 1
    30   21   22 1
    31   21   40 1
    32   22   23 ar
    33   22   31 ar
    34   23   24 ar
    35   23   41 1
    36   24   25 ar
    37   25   26 ar
    38   25   31 ar
    39   26   27 2
    40   26   28 ar
    41   27   42 1
    42   28   29 ar
    43   28   44 1
    44   29   30 ar
    45   29   43 1
    46   30   31 ar
@<TRIPOS>SUBSTRUCTURE
     1 ATP         1 GROUP 0 A     ****
@<TRIPOS>MOLECULE
[[[3,4-dihydroxy-5-(6-imino-1~{H}-purin-9-yl)tetrahydrofuran-2-yl]methoxy-oxido-phosphoryl]oxy-oxido-phosphoryl] hydrogen phosphate
   44    46     1     0     0
SMALL
USER_CHARGES

@<TRIPOS>ATOM
      1 PG         -0.9319    7.0228    0.0499 P.3       1 ATP         1.5257
      2 O1G         0.4424    6.9789    0.6799 O.co2     1 ATP        -0.8737
      3 O2G        -2.1639    6.6533    0.8457 O.co2     1 ATP        -0.8737
      4 O3G        -1.1583    8.5043   -0.5981 O.3       1 ATP        -0.7971
      5 PB         -0.7256    4.5436   -1.5484 P.3       1 ATP         1.6824
      6 O1B        -0.9534    4.2235   -3.0089 O.co2     1 ATP        -0.8925
      7 O2B         0.5328    4.1000   -0.8362 O.co2     1 ATP        -0.8925
      8 O3B        -0.9119    6.1508   -1.3296 O.3       1 ATP        -0.8047
      9 PA         -2.5569    2.5166   -0.4115 P.3       1 ATP         1.5908
     10 O1A        -2.7401    1.8113   -1.7379 O.co2     1 ATP        -0.8932
     11 O2A        -3.6908    2.5917    0.5877 O.co2     1 ATP        -0.8932
     12 O3A        -2.0190    4.0335   -0.6930 O.3       1 ATP        -0.8088
     13 O5'        -1.2434    1.9104    0.3515 O.3       1 ATP        -0.5646
     14 C5'        -0.8811    2.4285    1.6206 C.3       1 ATP         0.2204
     15 C4'        -0.1994    1.3333    2.4288 C.3       1 ATP         0.0965
     16 O4'        -1.1285    0.2356    2.5840 O.3       1 ATP        -0.3907
     17 C3'         1.0324    0.7610    1.7344 C.3       1 ATP         0.0763
     18 O3'         1.9175    0.2377    2.7247 O.3       1 ATP        -0.5884
     19 C2'         0.4468   -0.3802    0.9263 C.3       1 ATP         0.0784
     20 O2'         1.3993   -1.3703    0.5961 O.3       1 ATP        -0.6085
     21 C1'        -0.6159   -0.9100    1.8769 C.3       1 ATP         0.2186
     22 N9         -1.7127   -1.6108    1.2130 N.pl3     1 ATP        -0.1699
     23 C8         -2.8662   -1.0361    0.7388 C.ar      1 ATP         0.4438
     24 N7         -3.6774   -1.9166    0.1867 N.2       1 ATP        -0.6280
     25 C5         -3.0159   -3.1045    0.3122 C.ar      1 ATP         0.2109
     26 C6         -3.4377   -4.4169   -0.1199 C.ar      1 ATP         0.6180
     27 N6         -4.5720   -4.5691   -0.7080 N.2       1 ATP        -0.8319
     28 N1         -2.4600   -5.3463    0.2071 N.pl3     1 ATP        -0.8664
     29 C2         -1.2595   -5.0554    0.8515 C.ar      1 ATP         0.5952
     30 N3         -0.8555   -3.8803    1.2516 N.2       1 ATP        -0.5599
     31 C4         -1.7946   -2.9457    0.9448 C.ar      1 ATP         0.0076
     32 HOG3       -2.0097    8.6921   -1.0476 H         1 ATP         0.4101
     33 H5'1       -0.2033    3.2760    1.4769 H         1 ATP         0.0364
     34 H5'2       -1.7841    2.7762    2.1323 H         1 ATP         0.0364
     35 H4'         0.0403    1.7078    3.4343 H         1 ATP         0.0945
     36 H3'         1.5907    1.4859    1.1353 H         1 ATP         0.0703
     37 HO3'        2.6839   -0.1150    2.2479 H         1 ATP         0.4099
     38 H2'        -0.0017    0.0018    0.0005 H         1 ATP         0.0676
     39 HO2'        2.0953   -0.9375    0.0709 H         1 ATP         0.4291
     40 H1'        -0.1998   -1.6319    2.6178 H         1 ATP         0.0950
     41 H8         -3.0558    0.0252    0.8256 H         1 ATP         0.1135
     42 HN62       -4.7047   -5.5592   -0.9421 H         1 ATP         0.3588
     43 H2         -0.6372   -5.9505    1.0077 H         1 ATP         0.0302
     44 H44        -2.6338   -6.3155   -0.0469 H         1 ATP         0.4215
@<TRIPOS>BOND
     1    1    2 2
     2    1    3 1
     3    1    4 1
     4    1    8 1
     5    4   32 1
     6    5    6 2
     7    5    7 1
     8    5    8 1
     9    5   12 1
    10    9   10 2
    11    9   11 1
    12    9   12 1
    13    9   13 1
    14   13   14 1
    15   14   15 1
    16   14   33 1
    17   14   34 1
    18   15   16 1
    19   15   17 1
    20   15   35 1
    21   16   21 1
    22   17   18 1
    23   17   19 1
    24   17   36 1
    25   18   37 1
    26   19   20 1
    27   19   21 1
    28   19   38 1
    29   20   39 1
    30   21   22 1
    31   21   40 1
    32   22   23 ar
    33   22   31 ar
    34   23   24 ar
    35   23   41 1
    36   24   25 ar
    37   25   26 ar
    38   25   31 ar
    39   26   27 2
    40   26   28 ar
    41   27   42 1
    42   28   29 ar
    43   28   44 1
    44   29   30 ar
    45   29   43 1
    46   30   31 ar
@<TRIPOS>SUBSTRUCTURE
     1 ATP         1 GROUP 0 A     ****
@<TRIPOS>MOLECULE
[[[3,4-dihydroxy-5-(6-imino-1~{H}-purin-9-yl)tetrahydrofuran-2-yl]methoxy-oxido-phosphoryl]oxy-oxido-phosphoryl] hydrogen phosphate
   44    46     1     0     0
SMALL
USER_CHARGES

@<TRIPOS>ATOM
      1 PG          2.9322    7.1006   -2.1856 P.3       1 ATP         1.5257
      2 O1G         4.0415    6.4289   -2.9639 O.co2     1 ATP        -0.8737
      3 O2G         3.2169    8.2903   -1.2960 O.co2     1 ATP        -0.8737
      4 O3G         1.7399    7.5044   -3.2255 O.3       1 ATP        -0.7971
      5 PB          1.4493    4.5708   -1.8053 P.3       1 ATP         1.6824
      6 O1B         0.2745    4.8897   -2.7029 O.co2     1 ATP        -0.8925
      7 O2B         2.5436    3.6275   -2.2527 O.co2     1 ATP        -0.8925
      8 O3B         2.1323    5.9719   -1.3195 O.3       1 ATP        -0.8047
      9 PA         -0.1844    4.7788    0.6530 P.3       1 ATP         1.5908
     10 O1A        -1.5385    4.8262   -0.0211 O.co2     1 ATP        -0.8932
     11 O2A         0.4501    6.0373    1.2036 O.co2     1 ATP        -0.8932
     12 O3A         0.8819    4.0669   -0.3600 O.3       1 ATP        -0.8088
     13 O5'        -0.2062    3.6557    1.8417 O.3       1 ATP        -0.5646
     14 C5'        -0.8811    2.4285    1.6206 C.3       1 ATP         0.2204
     15 C4'        -0.1994    1.3333    2.4288 C.3       1 ATP         0.0965
     16 O4'        -1.1285    0.2356    2.5840 O.3       1 ATP        -0.3907
     17 C3'         1.0324    0.7610    1.7344 C.3       1 ATP         0.0763
     18 O3'         1.9175    0.2377    2.7247 O.3       1 ATP        -0.5884
     19 C2'         0.4468   -0.3802    0.9263 C.3       1 ATP         0.0784
     20 O2'         1.3993   -1.3703    0.5961 O.3       1 ATP        -0.6085
     21 C1'        -0.6159   -0.9100    1.8769 C.3       1 ATP         0.2186
     22 N9         -1.7127   -1.6108    1.2130 N.pl3     1 ATP        -0.1699
     23 C8         -1.7690   -2.9583    0.9549 C.ar      1 ATP         0.4438
     24 N7         -2.8827   -3.3076    0.3418 N.2       1 ATP        -0.6280
     25 C5         -3.5683   -2.1351    0.2017 C.ar      1 ATP         0.2109
     26 C6         -4.8617   -1.9185   -0.4044 C.ar      1 ATP         0.6180
     27 N6         -5.5166   -2.9094   -0.8993 N.2       1 ATP        -0.8319
     28 N1         -5.1837   -0.5701   -0.3344 N.pl3     1 ATP        -0.8664
     29 C2         -4.3821    0.4180    0.2330 C.ar      1 ATP         0.5952
     30 N3         -3.2117    0.2488    0.7860 N.2       1 ATP        -0.5599
     31 C4         -2.8672   -1.0657    0.7327 C.ar      1 ATP         0.0076
     32 HOG3        1.3040    6.7894   -3.7364 H         1 ATP         0.4101
     33 H5'1       -1.9256    2.5380    1.9293 H         1 ATP         0.0364
     34 H5'2       -0.8474    2.1930    0.5521 H         1 ATP         0.0364
     35 H4'         0.0403    1.7078    3.4343 H         1 ATP         0.0945
     36 H3'         1.5907    1.4859    1.1353 H         1 ATP         0.0703
     37 HO3'        2.6839   -0.1150    2.2479 H         1 ATP         0.4099
     38 H2'        -0.0017    0.0018    0.0005 H         1 ATP         0.0676
     39 HO2'        0.9369   -2.0558    0.0825 H         1 ATP         0.4291
     40 H1'        -0.1998   -1.6319    2.6178 H         1 ATP         0.0950
     41 H8         -0.9697   -3.6300    1.2371 H         1 ATP         0.1135
     42 HN62       -6.4060   -2.5723   -1.2840 H         1 ATP         0.3588
     43 H2         -4.8409    1.4176    0.1757 H         1 ATP         0.0302
     44 H44        -6.0768   -0.2826   -0.7263 H         1 ATP         0.4215
@<TRIPOS>BOND
     1    1    2 2
     2    1    3 1
     3    1    4 1
     4    1    8 1
     5    4   32 1
     6    5    6 2
     7    5    7 1
     8    5    8 1
     9    5   12 1
    10    9   10 2
    11    9   11 1
    12    9   12 1
    13    9   13 1
    14   13   14 1
    15   14   15 1
    16   14   33 1
    17   14   34 1
    18   15   16 1
    19   15   17 1
    20   15   35 1
    21   16   21 1
    22   17   18 1
    23   17   19 1
    24   17   36 1
    25   18   37 1
    26   19   20 1
    27   19   21 1
    28   19   38 1
    29   20   39 1
    30   21   22 1
    31   21   40 1
    32   22   23 ar
    33   22   31 ar
    34   23   24 ar
    35   23   41 1
    36   24   25 ar
    37   25   26 ar
    38   25   31 ar
    39   26   27 2
    40   26   28 ar
    41   27   42 1
    42   28   29 ar
    43   28   44 1
    44   29   30 ar
    45   29   43 1
    46   30   31 ar
@<TRIPOS>SUBSTRUCTURE
     1 ATP         1 GROUP 0 A     ****
@<TRIPOS>MOLECULE
[[[3,4-dihydroxy-5-(6-imino-1~{H}-purin-9-yl)tetrahydrofuran-2-yl]methoxy-oxido-phosphoryl]oxy-oxido-phosphoryl] hydrogen phosphate
   44    46     1     0     0
SMALL
USER_CHARGES

@<TRIPOS>ATOM
      1 PG         -0.6728    5.1654   -2.1049 P.3       1 ATP         1.5257
      2 O1G        -1.3523    4.5504   -3.3080 O.co2     1 ATP        -0.8737
      3 O2G         0.0664    4.3042   -1.1051 O.co2     1 ATP        -0.8737
      4 O3G         0.3358    6.3402   -2.6230 O.3       1 ATP        -0.7971
      5 PB         -3.0946    5.6738   -0.4862 P.3       1 ATP         1.6824
      6 O1B        -3.6436    6.8984    0.2111 O.co2     1 ATP        -0.8925
      7 O2B        -3.9664    4.8294   -1.3888 O.co2     1 ATP        -0.8925
      8 O3B        -1.7483    6.0981   -1.3065 O.3       1 ATP        -0.8047
      9 PA         -3.0798    3.8627    1.8536 P.3       1 ATP         1.5908
     10 O1A        -3.9736    2.7897    1.2703 O.co2     1 ATP        -0.8932
     11 O2A        -3.6162    4.8491    2.8679 O.co2     1 ATP        -0.8932
     12 O3A        -2.4007    4.7039    0.6285 O.3       1 ATP        -0.8088
     13 O5'        -1.7336    3.1724    2.4750 O.3       1 ATP        -0.5646
     14 C5'        -0.8811    2.4285    1.6206 C.3       1 ATP         0.2204
     15 C4'        -0.1994    1.3333    2.4288 C.3       1 ATP         0.0965
     16 O4'        -1.1285    0.2356    2.5840 O.3       1 ATP        -0.3907
     17 C3'         1.0324    0.7610    1.7344 C.3       1 ATP         0.0763
     18 O3'         1.9175    0.2377    2.7247 O.3       1 ATP        -0.5884
     19 C2'         0.4468   -0.3802    0.9263 C.3       1 ATP         0.0784
     20 O2'         1.3993   -1.3703    0.5961 O.3       1 ATP        -0.6085
     21 C1'        -0.6159   -0.9100    1.8769 C.3       1 ATP         0.2186
     22 N9         -1.7127   -1.6108    1.2130 N.pl3     1 ATP        -0.1699
     23 C8         -3.0370   -1.2489    1.2455 C.ar      1 ATP         0.4438
     24 N7         -3.8008   -2.0709    0.5534 N.2       1 ATP        -0.6280
     25 C5         -2.9295   -2.9976    0.0567 C.ar      1 ATP         0.2109
     26 C6         -3.2152   -4.1411   -0.7786 C.ar      1 ATP         0.6180
     27 N6         -4.4238   -4.3865   -1.1456 N.2       1 ATP        -0.8319
     28 N1         -2.0349   -4.8186   -1.0521 N.pl3     1 ATP        -0.8664
     29 C2         -0.7728   -4.4501   -0.5916 C.ar      1 ATP         0.5952
     30 N3         -0.4885   -3.4234    0.1630 N.2       1 ATP        -0.5599
     31 C4         -1.6274   -2.7377    0.4492 C.ar      1 ATP         0.0076
     32 HOG3        0.8544    6.8382   -1.9556 H         1 ATP         0.4101
     33 H5'1       -1.4800    1.9927    0.8146 H         1 ATP         0.0364
     34 H5'2       -0.1367    3.1040    1.1872 H         1 ATP         0.0364
     35 H4'         0.0403    1.7078    3.4343 H         1 ATP         0.0945
     36 H3'         1.5907    1.4859    1.1353 H         1 ATP         0.0703
     37 HO3'        2.1521    0.9800    3.3017 H         1 ATP         0.4099
     38 H2'        -0.0017    0.0018    0.0005 H         1 ATP         0.0676
     39 HO2'        0.9369   -2.0558    0.0825 H         1 ATP         0.4291
     40 H1'        -0.1998   -1.6319    2.6178 H         1 ATP         0.0950
     41 H8         -3.3806   -0.3795    1.7893 H         1 ATP         0.1135
     42 HN62       -4.4384   -5.2300   -1.7295 H         1 ATP         0.3588
     43 H2          0.0180   -5.1355   -0.9348 H         1 ATP         0.0302
     44 H44        -2.0977   -5.6477   -1.6374 H         1 ATP         0.4215
@<TRIPOS>BOND
     1    1    2 2
     2    1    3 1
     3    1    4 1
     4    1    8 1
     5    4   32 1
     6    5    6 2
     7    5    7 1
     8    5    8 1
     9    5   12 1
    10    9   10 2
    11    9   11 1
    12    9   12 1
    13    9   13 1
    14   13   14 1
    15   14   15 1
    16   14   33 1
    17   14   34 1
    18   15   16 1
    19   15   17 1
    20   15   35 1
    21   16   21 1
    22   17   18 1
    23   17   19 1
    24   17   36 1
    25   18   37 1
    26   19   20 1
    27   19   21 1
    28   19   38 1
    29   20   39 1
    30   21   22 1
    31   21   40 1
    32   22   23 ar
    33   22   31 ar
    34   23   24 ar
    35   23   41 1
    36   24   25 ar
    37   25   26 ar
    38   25   31 ar
    39   26   27 2
    40   26   28 ar
    41   27   42 1
    42   28   29 ar
    43   28   44 1
    44   29   30 ar
    45   29   43 1
    46   30   31 ar
@<TRIPOS>SUBSTRUCTURE
     1 ATP         1 GROUP 0 A     ****
@<TRIPOS>MOLECULE
[[[3,4-dihydroxy-5-(6-imino-1~{H}-purin-9-yl)tetrahydrofuran-2-yl]methoxy-oxido-phosphoryl]oxy-oxido-phosphoryl] hydrogen phosphate
   44    46     1     0     0
SMALL
USER_CHARGES

@<TRIPOS>ATOM
      1 PG         -2.5048    3.5908    7.8209 P.3       1 ATP         1.5257
      2 O1G        -2.0262    4.7839    8.6177 O.co2     1 ATP        -0.8737
      3 O2G        -2.2498    2.1804    8.3043 O.co2     1 ATP        -0.8737
      4 O3G        -4.1043    3.7617    7.5411 O.3       1 ATP        -0.7971
      5 PB         -2.1242    4.9651    5.2306 P.3       1 ATP         1.6824
      6 O1B        -3.5843    5.1097    4.8635 O.co2     1 ATP        -0.8925
      7 O2B        -1.3252    6.1424    5.7435 O.co2     1 ATP        -0.8925
      8 O3B        -1.9697    3.7284    6.2852 O.3       1 ATP        -0.8047
      9 PA         -1.0308    4.9148    2.4816 P.3       1 ATP         1.5908
     10 O1A        -0.1059    6.1044    2.6221 O.co2     1 ATP        -0.8932
     11 O2A        -2.3467    5.0408    1.7453 O.co2     1 ATP        -0.8932
     12 O3A        -1.3299    4.3036    3.9671 O.3       1 ATP        -0.8088
     13 O5'        -0.2062    3.6557    1.8417 O.3       1 ATP        -0.5646
     14 C5'        -0.8811    2.4285    1.6206 C.3       1 ATP         0.2204
     15 C4'        -0.1994    1.3333    2.4288 C.3       1 ATP         0.0965
     16 O4'        -1.1285    0.2356    2.5840 O.3       1 ATP        -0.3907
     17 C3'         1.0324    0.7610    1.7344 C.3       1 ATP         0.0763
     18 O3'         1.9175    0.2377    2.7247 O.3       1 ATP        -0.5884
     19 C2'         0.4468   -0.3802    0.9263 C.3       1 ATP         0.0784
     20 O2'         1.3993   -1.3703    0.5961 O.3       1 ATP        -0.6085
     21 C1'        -0.6159   -0.9100    1.8769 C.3       1 ATP         0.2186
     22 N9         -1.7127   -1.6108    1.2130 N.pl3     1 ATP        -0.1699
     23 C8         -2.0868   -2.9137    1.4327 C.ar      1 ATP         0.4438
     24 N7         -3.1125   -3.2756    0.6878 N.2       1 ATP        -0.6280
     25 C5         -3.4079   -2.1580   -0.0391 C.ar      1 ATP         0.2109
     26 C6         -4.4483   -1.9775   -1.0249 C.ar      1 ATP         0.6180
     27 N6         -5.2418   -2.9492   -1.3113 N.2       1 ATP        -0.8319
     28 N1         -4.3937   -0.6823   -1.5211 N.pl3     1 ATP        -0.8664
     29 C2         -3.4770    0.2901   -1.1271 C.ar      1 ATP         0.5952
     30 N3         -2.5289    0.1525   -0.2402 N.2       1 ATP        -0.5599
     31 C4         -2.5564   -1.1096    0.2655 C.ar      1 ATP         0.0076
     32 HOG3       -4.5664    3.0625    7.0313 H         1 ATP         0.4101
     33 H5'1       -1.9256    2.5380    1.9293 H         1 ATP         0.0364
     34 H5'2       -0.8474    2.1930    0.5521 H         1 ATP         0.0364
     35 H4'         0.0403    1.7078    3.4343 H         1 ATP         0.0945
     36 H3'         1.5907    1.4859    1.1353 H         1 ATP         0.0703
     37 HO3'        2.6839   -0.1150    2.2479 H         1 ATP         0.4099
     38 H2'        -0.0017    0.0018    0.0005 H         1 ATP         0.0676
     39 HO2'        2.0953   -0.9375    0.0709 H         1 ATP         0.4291
     40 H1'        -0.1998   -1.6319    2.6178 H         1 ATP         0.0950
     41 H8         -1.5740   -3.5449    2.1457 H         1 ATP         0.1135
     42 HN62       -5.9117   -2.6433   -2.0256 H         1 ATP         0.3588
     43 H2         -3.6225    1.2454   -1.6553 H         1 ATP         0.0302
     44 H44        -5.0794   -0.4231   -2.2258 H         1 ATP         0.4215
@<TRIPOS>BOND
     1    1    2 2
     2    1    3 1
     3    1    4 1
     4    1    8 1
     5    4   32 1
     6    5    6 2
     7    5    7 1
     8    5    8 1
     9    5   12 1
    10    9   10 2
    11    9   11 1
    12    9   12 1
    13    9   13 1
    14   13   14 1
    15   14   15 1
    16   14   33 1
    17   14   34 1
    18   15   16 1
    19   15   17 1
    20   15   35 1
    21   16   21 1
    22   17   18 1
    23   17   19 1
    24   17   36 1
    25   18   37 1
    26   19   20 1
    27   19   21 1
    28   19   38 1
    29   20   39 1
    30   21   22 1
    31   21   40 1
    32   22   23 ar
    33   22   31 ar
    34   23   24 ar
    35   23   41 1
    36   24   25 ar
    37   25   26 ar
    38   25   31 ar
    39   26   27 2
    40   26   28 ar
    41   27   42 1
    42   28   29 ar
    43   28   44 1
    44   29   30 ar
    45   29   43 1
    46   30   31 ar
@<TRIPOS>SUBSTRUCTURE
     1 ATP         1 GROUP 0 A     ****
@<TRIPOS>MOLECULE
[[[3,4-dihydroxy-5-(6-imino-1~{H}-purin-9-yl)tetrahydrofuran-2-yl]methoxy-oxido-phosphoryl]oxy-oxido-phosphoryl] hydrogen phosphate
   44    46     1     0     0
SMALL
USER_CHARGES

@<TRIPOS>ATOM
      1 PG          0.9287    7.8389    4.3992 P.3       1 ATP         1.5257
      2 O1G         2.1048    7.1664    5.0715 O.co2     1 ATP        -0.8737
      3 O2G         0.0103    8.7566    5.1751 O.co2     1 ATP        -0.8737
      4 O3G         1.4715    8.6397    3.0839 O.3       1 ATP        -0.7971
      5 PB         -1.2528    6.8802    2.6483 P.3       1 ATP         1.6824
      6 O1B        -2.4101    7.4439    3.4423 O.co2     1 ATP        -0.8925
      7 O2B        -0.7867    7.5378    1.3685 O.co2     1 ATP        -0.8925
      8 O3B         0.0293    6.7055    3.6440 O.3       1 ATP        -0.8047
      9 PA         -1.9156    4.0918    3.3837 P.3       1 ATP         1.5908
     10 O1A        -3.2735    4.3719    3.9903 O.co2     1 ATP        -0.8932
     11 O2A        -0.7136    3.8310    4.2651 O.co2     1 ATP        -0.8932
     12 O3A        -1.5422    5.3014    2.3507 O.3       1 ATP        -0.8088
     13 O5'        -2.0401    2.8620    2.3128 O.3       1 ATP        -0.5646
     14 C5'        -0.8811    2.4285    1.6206 C.3       1 ATP         0.2204
     15 C4'        -0.1994    1.3333    2.4288 C.3       1 ATP         0.0965
     16 O4'        -1.1285    0.2356    2.5840 O.3       1 ATP        -0.3907
     17 C3'         1.0324    0.7610    1.7344 C.3       1 ATP         0.0763
     18 O3'         1.9175    0.2377    2.7247 O.3       1 ATP        -0.5884
     19 C2'         0.4468   -0.3802    0.9263 C.3       1 ATP         0.0784
     20 O2'         1.3993   -1.3703    0.5961 O.3       1 ATP        -0.6085
     21 C1'        -0.6159   -0.9100    1.8769 C.3       1 ATP         0.2186
     22 N9         -1.7127   -1.6108    1.2130 N.pl3     1 ATP        -0.1699
     23 C8         -1.7690   -2.9583    0.9549 C.ar      1 ATP         0.4438
     24 N7         -2.8827   -3.3076    0.3418 N.2       1 ATP        -0.6280
     25 C5         -3.5683   -2.1351    0.2017 C.ar      1 ATP         0.2109
     26 C6         -4.8617   -1.9185   -0.4044 C.ar      1 ATP         0.6180
     27 N6         -5.5166   -2.9094   -0.8993 N.2       1 ATP        -0.8319
     28 N1         -5.1837   -0.5701   -0.3344 N.pl3     1 ATP        -0.8664
     29 C2         -4.3821    0.4180    0.2330 C.ar      1 ATP         0.5952
     30 N3         -3.2117    0.2488    0.7860 N.2       1 ATP        -0.5599
     31 C4         -2.8672   -1.0657    0.7327 C.ar      1 ATP         0.0076
     32 HOG3        0.8230    9.1315    2.5362 H         1 ATP         0.4101
     33 H5'1       -1.1767    2.0502    0.6368 H         1 ATP         0.0364
     34 H5'2       -0.2080    3.2814    1.4876 H         1 ATP         0.0364
     35 H4'         0.0403    1.7078    3.4343 H         1 ATP         0.0945
     36 H3'         1.5907    1.4859    1.1353 H         1 ATP         0.0703
     37 HO3'        2.1521    0.9800    3.3017 H         1 ATP         0.4099
     38 H2'        -0.0017    0.0018    0.0005 H         1 ATP         0.0676
     39 HO2'        0.9369   -2.0558    0.0825 H         1 ATP         0.4291
     40 H1'        -0.1998   -1.6319    2.6178 H         1 ATP         0.0950
     41 H8         -0.9697   -3.6300    1.2371 H         1 ATP         0.1135
     42 HN62       -6.4060   -2.5723   -1.2840 H         1 ATP         0.3588
     43 H2         -4.8409    1.4176    0.1757 H         1 ATP         0.0302
     44 H44        -6.0768   -0.2826   -0.7263 H         1 ATP         0.4215
@<TRIPOS>BOND
     1    1    2 2
     2    1    3 1
     3    1    4 1
     4    1    8 1
     5    4   32 1
     6    5    6 2
     7    5    7 1
     8    5    8 1
     9    5   12 1
    10    9   10 2
    11    9   11 1
    12    9   12 1
    13    9   13 1
    14   13   14 1
    15   14   15 1
    16   14   33 1
    17   14   34 1
    18   15   16 1
    19   15   17 1
    20   15   35 1
    21   16   21 1
    22   17   18 1
    23   17   19 1
    24   17   36 1
    25   18   37 1
    26   19   20 1
    27   19   21 1
    28   19   38 1
    29   20   39 1
    30   21   22 1
    31   21   40 1
    32   22   23 ar
    33   22   31 ar
    34   23   24 ar
    35   23   41 1
    36   24   25 ar
    37   25   26 ar
    38   25   31 ar
    39   26   27 2
    40   26   28 ar
    41   27   42 1
    42   28   29 ar
    43   28   44 1
    44   29   30 ar
    45   29   43 1
    46   30   31 ar
@<TRIPOS>SUBSTRUCTURE
     1 ATP         1 GROUP 0 A     ****
@<TRIPOS>MOLECULE
[[[3,4-dihydroxy-5-(6-imino-1~{H}-purin-9-yl)tetrahydrofuran-2-yl]methoxy-oxido-phosphoryl]oxy-oxido-phosphoryl] hydrogen phosphate
   44    46     1     0     0
SMALL
USER_CHARGES

@<TRIPOS>ATOM
      1 PG         -3.8312    6.1712   -0.7283 P.3       1 ATP         1.5257
      2 O1G        -3.7599    7.6819   -0.7369 O.co2     1 ATP        -0.8737
      3 O2G        -3.7681    5.3975    0.5698 O.co2     1 ATP        -0.8737
      4 O3G        -5.1697    5.7105   -1.5419 O.3       1 ATP        -0.7971
      5 PB         -1.0761    5.6290   -1.6551 P.3       1 ATP         1.6824
      6 O1B        -0.4990    4.7884   -2.7722 O.co2     1 ATP        -0.8925
      7 O2B        -0.6450    7.0645   -1.4520 O.co2     1 ATP        -0.8925
      8 O3B        -2.7052    5.5804   -1.7515 O.3       1 ATP        -0.8047
      9 PA          0.4655    4.4361    0.5710 P.3       1 ATP         1.5908
     10 O1A         1.1233    5.7111    1.0526 O.co2     1 ATP        -0.8932
     11 O2A         1.2411    3.4267   -0.2470 O.co2     1 ATP        -0.8932
     12 O3A        -0.8949    4.8235   -0.2469 O.3       1 ATP        -0.8088
     13 O5'        -0.2062    3.6557    1.8417 O.3       1 ATP        -0.5646
     14 C5'        -0.8811    2.4285    1.6206 C.3       1 ATP         0.2204
     15 C4'        -0.1994    1.3333    2.4288 C.3       1 ATP         0.0965
     16 O4'        -1.1285    0.2356    2.5840 O.3       1 ATP        -0.3907
     17 C3'         1.0324    0.7610    1.7344 C.3       1 ATP         0.0763
     18 O3'         1.9175    0.2377    2.7247 O.3       1 ATP        -0.5884
     19 C2'         0.4468   -0.3802    0.9263 C.3       1 ATP         0.0784
     20 O2'         1.3993   -1.3703    0.5961 O.3       1 ATP        -0.6085
     21 C1'        -0.6159   -0.9100    1.8769 C.3       1 ATP         0.2186
     22 N9         -1.7127   -1.6108    1.2130 N.pl3     1 ATP        -0.1699
     23 C8         -2.8662   -1.0361    0.7388 C.ar      1 ATP         0.4438
     24 N7         -3.6774   -1.9166    0.1867 N.2       1 ATP        -0.6280
     25 C5         -3.0159   -3.1045    0.3122 C.ar      1 ATP         0.2109
     26 C6         -3.4377   -4.4169   -0.1199 C.ar      1 ATP         0.6180
     27 N6         -4.5720   -4.5691   -0.7080 N.2       1 ATP        -0.8319
     28 N1         -2.4600   -5.3463    0.2071 N.pl3     1 ATP        -0.8664
     29 C2         -1.2595   -5.0554    0.8515 C.ar      1 ATP         0.5952
     30 N3         -0.8555   -3.8803    1.2516 N.2       1 ATP        -0.5599
     31 C4         -1.7946   -2.9457    0.9448 C.ar      1 ATP         0.0076
     32 HOG3       -5.3585    4.7515   -1.6253 H         1 ATP         0.4101
     33 H5'1       -1.9256    2.5380    1.9293 H         1 ATP         0.0364
     34 H5'2       -0.8474    2.1930    0.5521 H         1 ATP         0.0364
     35 H4'         0.0403    1.7078    3.4343 H         1 ATP         0.0945
     36 H3'         1.5907    1.4859    1.1353 H         1 ATP         0.0703
     37 HO3'        2.1521    0.9800    3.3017 H         1 ATP         0.4099
     38 H2'        -0.0017    0.0018    0.0005 H         1 ATP         0.0676
     39 HO2'        0.9369   -2.0558    0.0825 H         1 ATP         0.4291
     40 H1'        -0.1998   -1.6319    2.6178 H         1 ATP         0.0950
     41 H8         -3.0558    0.0252    0.8256 H         1 ATP         0.1135
     42 HN62       -4.7047   -5.5592   -0.9421 H         1 ATP         0.3588
     43 H2         -0.6372   -5.9505    1.0077 H         1 ATP         0.0302
     44 H44        -2.6338   -6.3155   -0.0469 H         1 ATP         0.4215
@<TRIPOS>BOND
     1    1    2 2
     2    1    3 1
     3    1    4 1
     4    1    8 1
     5    4   32 1
     6    5    6 2
     7    5    7 1
     8    5    8 1
     9    5   12 1
    10    9   10 2
    11    9   11 1
    12    9   12 1
    13    9   13 1
    14   13   14 1
    15   14   15 1
    16   14   33 1
    17   14   34 1
    18   15   16 1
    19   15   17 1
    20   15   35 1
    21   16   21 1
    22   17   18 1
    23   17   19 1
    24   17   36 1
    25   18   37 1
    26   19   20 1
    27   19   21 1
    28   19   38 1
    29   20   39 1
    30   21   22 1
    31   21   40 1
    32   22   23 ar
    33   22   31 ar
    34   23   24 ar
    35   23   41 1
    36   24   25 ar
    37   25   26 ar
    38   25   31 ar
    39   26   27 2
    40   26   28 ar
    41   27   42 1
    42   28   29 ar
    43   28   44 1
    44   29   30 ar
    45   29   43 1
    46   30   31 ar
@<TRIPOS>SUBSTRUCTURE
     1 ATP         1 GROUP 0 A     ****
@<TRIPOS>MOLECULE
[[[3,4-dihydroxy-5-(6-imino-1~{H}-purin-9-yl)tetrahydrofuran-2-yl]methoxy-oxido-phosphoryl]oxy-oxido-phosphoryl] hydrogen phosphate
   44    46     1     0     0
SMALL
USER_CHARGES

@<TRIPOS>ATOM
      1 PG          8.6498   -1.9846    2.6601 P.3       1 ATP         1.5257
      2 O1G         9.2903   -3.1198    1.8929 O.co2     1 ATP        -0.8737
      3 O2G         7.9371   -2.2365    3.9702 O.co2     1 ATP        -0.8737
      4 O3G         9.7700   -0.8202    2.8948 O.3       1 ATP        -0.7971
      5 PB          7.9428   -0.5068    0.1984 P.3       1 ATP         1.6824
      6 O1B         8.9093    0.6437    0.3703 O.co2     1 ATP        -0.8925
      7 O2B         8.2166   -1.6191   -0.7891 O.co2     1 ATP        -0.8925
      8 O3B         7.6496   -1.1671    1.6626 O.3       1 ATP        -0.8047
      9 PA          5.8979    0.9309   -1.3848 P.3       1 ATP         1.5908
     10 O1A         5.9209    0.0232   -2.5956 O.co2     1 ATP        -0.8932
     11 O2A         6.5856    2.2784   -1.4151 O.co2     1 ATP        -0.8932
     12 O3A         6.4552    0.0987   -0.0938 O.3       1 ATP        -0.8088
     13 O5'         4.3516    1.1575   -0.9026 O.3       1 ATP        -0.5646
     14 C5'         4.0922    1.9801    0.2227 C.3       1 ATP         0.2204
     15 C4'         2.5944    2.0310    0.4653 C.3       1 ATP         0.0965
     16 O4'         1.9327    2.5740   -0.6889 O.3       1 ATP        -0.3907
     17 C3'         1.9685    0.6634    0.6767 C.3       1 ATP         0.0763
     18 O3'         2.1425    0.1975    1.9977 O.3       1 ATP        -0.5884
     19 C2'         0.5176    0.9128    0.3099 C.3       1 ATP         0.0784
     20 O2'        -0.2103    1.4454    1.4152 O.3       1 ATP        -0.6085
     21 C1'         0.6219    1.9765   -0.7844 C.3       1 ATP         0.2186
     22 N9          0.4237    1.4496   -2.1357 N.pl3     1 ATP        -0.1699
     23 C8          1.4069    0.9710   -2.9662 C.ar      1 ATP         0.4438
     24 N7          0.9316    0.5623   -4.1260 N.2       1 ATP        -0.6280
     25 C5         -0.4120    0.7884   -4.0344 C.ar      1 ATP         0.2109
     26 C6         -1.4353    0.5283   -5.0204 C.ar      1 ATP         0.6180
     27 N6         -1.1199    0.0176   -6.1586 N.2       1 ATP        -0.8319
     28 N1         -2.6704    0.9095   -4.5147 N.pl3     1 ATP        -0.8664
     29 C2         -2.8863    1.4571   -3.2520 C.ar      1 ATP         0.5952
     30 N3         -1.9805    1.7017   -2.3442 N.2       1 ATP        -0.5599
     31 C4         -0.7561    1.3381   -2.8112 C.ar      1 ATP         0.0076
     32 HOG3        9.5067   -0.0104    3.3819 H         1 ATP         0.4101
     33 H5'1        4.6069    1.5618    1.0936 H         1 ATP         0.0364
     34 H5'2        4.4824    2.9837    0.0254 H         1 ATP         0.0364
     35 H4'         2.3752    2.7029    1.3156 H         1 ATP         0.0945
     36 H3'         2.4336   -0.1217   -0.0015 H         1 ATP         0.0703
     37 HO3'        1.7138    0.8467    2.5755 H         1 ATP         0.4099
     38 H2'         0.0316    0.0155   -0.0339 H         1 ATP         0.0676
     39 HO2'       -1.1270    1.5823    1.1180 H         1 ATP         0.4291
     40 H1'        -0.1474    2.7798   -0.6651 H         1 ATP         0.0950
     41 H8          2.4466    0.9468   -2.6694 H         1 ATP         0.1135
     42 HN62       -1.9661   -0.0965   -6.7275 H         1 ATP         0.3588
     43 H2         -3.9481    1.6825   -3.0660 H         1 ATP         0.0302
     44 H44        -3.4814    0.7753   -5.1133 H         1 ATP         0.4215
@<TRIPOS>BOND
     1    1    2 2
     2    1    3 1
     3    1    4 1
     4    1    8 1
     5    4   32 1
     6    5    6 2
     7    5    7 1
     8    5    8 1
     9    5   12 1
    10    9   10 2
    11    9   11 1
    12    9   12 1
    13    9   13 1
    14   13   14 1
    15   14   15 1
    16   14   33 1
    17   14   34 1
    18   15   16 1
    19   15   17 1
    20   15   35 1
    21   16   21 1
    22   17   18 1
    23   17   19 1
    24   17   36 1
    25   18   37 1
    26   19   20 1
    27   19   21 1
    28   19   38 1
    29   20   39 1
    30   21   22 1
    31   21   40 1
    32   22   23 ar
    33   22   31 ar
    34   23   24 ar
    35   23   41 1
    36   24   25 ar
    37   25   26 ar
    38   25   31 ar
    39   26   27 2
    40   26   28 ar
    41   27   42 1
    42   28   29 ar
    43   28   44 1
    44   29   30 ar
    45   29   43 1
    46   30   31 ar
@<TRIPOS>SUBSTRUCTURE
     1 ATP         1 GROUP 0 A     ****
@<TRIPOS>MOLECULE
[[[3,4-dihydroxy-5-(6-imino-1~{H}-purin-9-yl)tetrahydrofuran-2-yl]methoxy-oxido-phosphoryl]oxy-oxido-phosphoryl] hydrogen phosphate
   44    46     1     0     0
SMALL
USER_CHARGES

@<TRIPOS>ATOM
      1 PG          9.0098    2.9324    4.5800 P.3       1 ATP         1.5257
      2 O1G         9.6096    4.2936    4.8539 O.co2     1 ATP        -0.8737
      3 O2G         9.8922    1.7210    4.3761 O.co2     1 ATP        -0.8737
      4 O3G         7.9300    2.5950    5.7573 O.3       1 ATP        -0.7971
      5 PB          8.2727    3.3750    1.7508 P.3       1 ATP         1.6824
      6 O1B         8.7680    4.7993    1.6346 O.co2     1 ATP        -0.8925
      7 O2B         9.0531    2.2233    1.1575 O.co2     1 ATP        -0.8925
      8 O3B         7.9754    3.0509    3.3231 O.3       1 ATP        -0.8047
      9 PA          6.1593    3.5241   -0.3148 P.3       1 ATP         1.5908
     10 O1A         6.6760    2.4087   -1.1975 O.co2     1 ATP        -0.8932
     11 O2A         6.3639    4.9731   -0.6998 O.co2     1 ATP        -0.8932
     12 O3A         6.7382    3.3079    1.1978 O.3       1 ATP        -0.8088
     13 O5'         4.5670    3.2937   -0.0211 O.3       1 ATP        -0.5646
     14 C5'         4.0922    1.9801    0.2227 C.3       1 ATP         0.2204
     15 C4'         2.5944    2.0310    0.4653 C.3       1 ATP         0.0965
     16 O4'         1.9327    2.5740   -0.6889 O.3       1 ATP        -0.3907
     17 C3'         1.9685    0.6634    0.6767 C.3       1 ATP         0.0763
     18 O3'         2.1425    0.1975    1.9977 O.3       1 ATP        -0.5884
     19 C2'         0.5176    0.9128    0.3099 C.3       1 ATP         0.0784
     20 O2'        -0.2103    1.4454    1.4152 O.3       1 ATP        -0.6085
     21 C1'         0.6219    1.9765   -0.7844 C.3       1 ATP         0.2186
     22 N9          0.4237    1.4496   -2.1357 N.pl3     1 ATP        -0.1699
     23 C8         -0.7779    1.3483   -2.7928 C.ar      1 ATP         0.4438
     24 N7         -0.6499    0.8341   -3.9999 N.2       1 ATP        -0.6280
     25 C5          0.6893    0.5965   -4.1212 C.ar      1 ATP         0.2109
     26 C6          1.4031    0.0342   -5.2443 C.ar      1 ATP         0.6180
     27 N6          0.7649   -0.3130   -6.3063 N.2       1 ATP        -0.8319
     28 N1          2.7566   -0.0326   -4.9437 N.pl3     1 ATP        -0.8664
     29 C2          3.3337    0.3796   -3.7446 C.ar      1 ATP         0.5952
     30 N3          2.7120    0.8899   -2.7163 N.2       1 ATP        -0.5599
     31 C4          1.3803    0.9684   -2.9805 C.ar      1 ATP         0.0076
     32 HOG3        7.4516    1.7394    5.7207 H         1 ATP         0.4101
     33 H5'1        4.3179    1.3548   -0.6470 H         1 ATP         0.0364
     34 H5'2        4.6083    1.5737    1.0983 H         1 ATP         0.0364
     35 H4'         2.3752    2.7029    1.3156 H         1 ATP         0.0945
     36 H3'         2.4336   -0.1217   -0.0015 H         1 ATP         0.0703
     37 HO3'        3.0987    0.1465    2.1461 H         1 ATP         0.4099
     38 H2'         0.0316    0.0155   -0.0339 H         1 ATP         0.0676
     39 HO2'       -1.1270    1.5823    1.1180 H         1 ATP         0.4291
     40 H1'        -0.1474    2.7798   -0.6651 H         1 ATP         0.0950
     41 H8         -1.7076    1.6648   -2.3398 H         1 ATP         0.1135
     42 HN62        1.4266   -0.6890   -6.9943 H         1 ATP         0.3588
     43 H2          4.4251    0.2326   -3.7294 H         1 ATP         0.0302
     44 H44         3.3750   -0.4100   -5.6572 H         1 ATP         0.4215
@<TRIPOS>BOND
     1    1    2 2
     2    1    3 1
     3    1    4 1
     4    1    8 1
     5    4   32 1
     6    5    6 2
     7    5    7 1
     8    5    8 1
     9    5   12 1
    10    9   10 2
    11    9   11 1
    12    9   12 1
    13    9   13 1
    14   13   14 1
    15   14   15 1
    16   14   33 1
    17   14   34 1
    18   15   16 1
    19   15   17 1
    20   15   35 1
    21   16   21 1
    22   17   18 1
    23   17   19 1
    24   17   36 1
    25   18   37 1
    26   19   20 1
    27   19   21 1
    28   19   38 1
    29   20   39 1
    30   21   22 1
    31   21   40 1
    32   22   23 ar
    33   22   31 ar
    34   23   24 ar
    35   23   41 1
    36   24   25 ar
    37   25   26 ar
    38   25   31 ar
    39   26   27 2
    40   26   28 ar
    41   27   42 1
    42   28   29 ar
    43   28   44 1
    44   29   30 ar
    45   29   43 1
    46   30   31 ar
@<TRIPOS>SUBSTRUCTURE
     1 ATP         1 GROUP 0 A     ****
@<TRIPOS>MOLECULE
[[[3,4-dihydroxy-5-(6-imino-1~{H}-purin-9-yl)tetrahydrofuran-2-yl]methoxy-oxido-phosphoryl]oxy-oxido-phosphoryl] hydrogen phosphate
   44    46     1     0     0
SMALL
USER_CHARGES

@<TRIPOS>ATOM
      1 PG         10.4868    1.2848   -1.4211 P.3       1 ATP         1.5257
      2 O1G        10.8595    0.3802   -0.2677 O.co2     1 ATP        -0.8737
      3 O2G        11.3832    2.4322   -1.8301 O.co2     1 ATP        -0.8737
      4 O3G        10.1984    0.3585   -2.7344 O.3       1 ATP        -0.7971
      5 PB          8.0229    2.7372   -2.1717 P.3       1 ATP         1.6824
      6 O1B         8.6415    4.1066   -2.3437 O.co2     1 ATP        -0.8925
      7 O2B         7.6478    1.8913   -3.3681 O.co2     1 ATP        -0.8925
      8 O3B         8.9754    1.8530   -1.1834 O.3       1 ATP        -0.8047
      9 PA          5.2953    3.6262   -1.4472 P.3       1 ATP         1.5908
     10 O1A         4.5607    2.9193   -2.5657 O.co2     1 ATP        -0.8932
     11 O2A         5.5518    5.1161   -1.5107 O.co2     1 ATP        -0.8932
     12 O3A         6.7215    2.8698   -1.1952 O.3       1 ATP        -0.8088
     13 O5'         4.5670    3.2937   -0.0211 O.3       1 ATP        -0.5646
     14 C5'         4.0922    1.9801    0.2227 C.3       1 ATP         0.2204
     15 C4'         2.5944    2.0310    0.4653 C.3       1 ATP         0.0965
     16 O4'         1.9327    2.5740   -0.6889 O.3       1 ATP        -0.3907
     17 C3'         1.9685    0.6634    0.6767 C.3       1 ATP         0.0763
     18 O3'         2.1425    0.1975    1.9977 O.3       1 ATP        -0.5884
     19 C2'         0.5176    0.9128    0.3099 C.3       1 ATP         0.0784
     20 O2'        -0.2103    1.4454    1.4152 O.3       1 ATP        -0.6085
     21 C1'         0.6219    1.9765   -0.7844 C.3       1 ATP         0.2186
     22 N9          0.4237    1.4496   -2.1357 N.pl3     1 ATP        -0.1699
     23 C8          1.4069    0.9710   -2.9662 C.ar      1 ATP         0.4438
     24 N7          0.9316    0.5623   -4.1260 N.2       1 ATP        -0.6280
     25 C5         -0.4120    0.7884   -4.0344 C.ar      1 ATP         0.2109
     26 C6         -1.4353    0.5283   -5.0204 C.ar      1 ATP         0.6180
     27 N6         -1.1199    0.0176   -6.1586 N.2       1 ATP        -0.8319
     28 N1         -2.6704    0.9095   -4.5147 N.pl3     1 ATP        -0.8664
     29 C2         -2.8863    1.4571   -3.2520 C.ar      1 ATP         0.5952
     30 N3         -1.9805    1.7017   -2.3442 N.2       1 ATP        -0.5599
     31 C4         -0.7561    1.3381   -2.8112 C.ar      1 ATP         0.0076
     32 HOG3        9.9427    0.8018   -3.5713 H         1 ATP         0.4101
     33 H5'1        4.3179    1.3548   -0.6470 H         1 ATP         0.0364
     34 H5'2        4.6083    1.5737    1.0983 H         1 ATP         0.0364
     35 H4'         2.3752    2.7029    1.3156 H         1 ATP         0.0945
     36 H3'         2.4336   -0.1217   -0.0015 H         1 ATP         0.0703
     37 HO3'        1.7160   -0.6716    2.0397 H         1 ATP         0.4099
     38 H2'         0.0316    0.0155   -0.0339 H         1 ATP         0.0676
     39 HO2'       -0.1608    0.7921    2.1351 H         1 ATP         0.4291
     40 H1'        -0.1474    2.7798   -0.6651 H         1 ATP         0.0950
     41 H8          2.4466    0.9468   -2.6694 H         1 ATP         0.1135
     42 HN62       -1.9661   -0.0965   -6.7275 H         1 ATP         0.3588
     43 H2         -3.9481    1.6825   -3.0660 H         1 ATP         0.0302
     44 H44        -3.4814    0.7753   -5.1133 H         1 ATP         0.4215
@<TRIPOS>BOND
     1    1    2 2
     2    1    3 1
     3    1    4 1
     4    1    8 1
     5    4   32 1
     6    5    6 2
     7    5    7 1
     8    5    8 1
     9    5   12 1
    10    9   10 2
    11    9   11 1
    12    9   12 1
    13    9   13 1
    14   13   14 1
    15   14   15 1
    16   14   33 1
    17   14   34 1
    18   15   16 1
    19   15   17 1
    20   15   35 1
    21   16   21 1
    22   17   18 1
    23   17   19 1
    24   17   36 1
    25   18   37 1
    26   19   20 1
    27   19   21 1
    28   19   38 1
    29   20   39 1
    30   21   22 1
    31   21   40 1
    32   22   23 ar
    33   22   31 ar
    34   23   24 ar
    35   23   41 1
    36   24   25 ar
    37   25   26 ar
    38   25   31 ar
    39   26   27 2
    40   26   28 ar
    41   27   42 1
    42   28   29 ar
    43   28   44 1
    44   29   30 ar
    45   29   43 1
    46   30   31 ar
@<TRIPOS>SUBSTRUCTURE
     1 ATP         1 GROUP 0 A     ****
@<TRIPOS>MOLECULE
[[[3,4-dihydroxy-5-(6-imino-1~{H}-purin-9-yl)tetrahydrofuran-2-yl]methoxy-oxido-phosphoryl]oxy-oxido-phosphoryl] hydrogen phosphate
   44    46     1     0     0
SMALL
USER_CHARGES

@<TRIPOS>ATOM
      1 PG          7.7299    5.7003   -3.9008 P.3       1 ATP         1.5257
      2 O1G         9.0375    5.9830   -3.1953 O.co2     1 ATP        -0.8737
      3 O2G         6.7286    6.8052   -4.1540 O.co2     1 ATP        -0.8737
      4 O3G         8.0554    4.9605   -5.3195 O.3       1 ATP        -0.7971
      5 PB          7.5261    2.9743   -2.7735 P.3       1 ATP         1.6824
      6 O1B         7.7580    2.2083   -4.0568 O.co2     1 ATP        -0.8925
      7 O2B         8.6150    3.1058   -1.7321 O.co2     1 ATP        -0.8925
      8 O3B         6.9754    4.4654   -3.1461 O.3       1 ATP        -0.8047
      9 PA          5.8979    0.9309   -1.3848 P.3       1 ATP         1.5908
     10 O1A         6.7868    0.7713   -0.1705 O.co2     1 ATP        -0.8932
     11 O2A         5.9018   -0.1050   -2.4878 O.co2     1 ATP        -0.8932
     12 O3A         6.1804    2.3945   -2.0539 O.3       1 ATP        -0.8088
     13 O5'         4.3516    1.1575   -0.9026 O.3       1 ATP        -0.5646
     14 C5'         4.0922    1.9801    0.2227 C.3       1 ATP         0.2204
     15 C4'         2.5944    2.0310    0.4653 C.3       1 ATP         0.0965
     16 O4'         1.9327    2.5740   -0.6889 O.3       1 ATP        -0.3907
     17 C3'         1.9685    0.6634    0.6767 C.3       1 ATP         0.0763
     18 O3'         2.1425    0.1975    1.9977 O.3       1 ATP        -0.5884
     19 C2'         0.5176    0.9128    0.3099 C.3       1 ATP         0.0784
     20 O2'        -0.2103    1.4454    1.4152 O.3       1 ATP        -0.6085
     21 C1'         0.6219    1.9765   -0.7844 C.3       1 ATP         0.2186
     22 N9          0.4237    1.4496   -2.1357 N.pl3     1 ATP        -0.1699
     23 C8          1.1891    0.4862   -2.7452 C.ar      1 ATP         0.4438
     24 N7          0.7743    0.2113   -3.9661 N.2       1 ATP        -0.6280
     25 C5         -0.3017    1.0326   -4.1458 C.ar      1 ATP         0.2109
     26 C6         -1.1512    1.1578   -5.3076 C.ar      1 ATP         0.6180
     27 N6         -0.9306    0.4354   -6.3493 N.2       1 ATP        -0.8319
     28 N1         -2.1281    2.1133   -5.0636 N.pl3     1 ATP        -0.8664
     29 C2         -2.2653    2.8370   -3.8811 C.ar      1 ATP         0.5952
     30 N3         -1.5123    2.7429   -2.8189 N.2       1 ATP        -0.5599
     31 C4         -0.5429    1.8121   -3.0273 C.ar      1 ATP         0.0076
     32 HOG3        7.3042    4.7098   -5.8985 H         1 ATP         0.4101
     33 H5'1        4.6069    1.5618    1.0936 H         1 ATP         0.0364
     34 H5'2        4.4824    2.9837    0.0254 H         1 ATP         0.0364
     35 H4'         2.3752    2.7029    1.3156 H         1 ATP         0.0945
     36 H3'         2.4336   -0.1217   -0.0015 H         1 ATP         0.0703
     37 HO3'        1.7160   -0.6716    2.0397 H         1 ATP         0.4099
     38 H2'         0.0316    0.0155   -0.0339 H         1 ATP         0.0676
     39 HO2'       -0.1608    0.7921    2.1351 H         1 ATP         0.4291
     40 H1'        -0.1474    2.7798   -0.6651 H         1 ATP         0.0950
     41 H8          2.0323    0.0251   -2.2492 H         1 ATP         0.1135
     42 HN62       -1.6261    0.6558   -7.0707 H         1 ATP         0.3588
     43 H2         -3.1123    3.5402   -3.9130 H         1 ATP         0.0302
     44 H44        -2.7975    2.2966   -5.8068 H         1 ATP         0.4215
@<TRIPOS>BOND
     1    1    2 2
     2    1    3 1
     3    1    4 1
     4    1    8 1
     5    4   32 1
     6    5    6 2
     7    5    7 1
     8    5    8 1
     9    5   12 1
    10    9   10 2
    11    9   11 1
    12    9   12 1
    13    9   13 1
    14   13   14 1
    15   14   15 1
    16   14   33 1
    17   14   34 1
    18   15   16 1
    19   15   17 1
    20   15   35 1
    21   16   21 1
    22   17   18 1
    23   17   19 1
    24   17   36 1
    25   18   37 1
    26   19   20 1
    27   19   21 1
    28   19   38 1
    29   20   39 1
    30   21   22 1
    31   21   40 1
    32   22   23 ar
    33   22   31 ar
    34   23   24 ar
    35   23   41 1
    36   24   25 ar
    37   25   26 ar
    38   25   31 ar
    39   26   27 2
    40   26   28 ar
    41   27   42 1
    42   28   29 ar
    43   28   44 1
    44   29   30 ar
    45   29   43 1
    46   30   31 ar
@<TRIPOS>SUBSTRUCTURE
     1 ATP         1 GROUP 0 A     ****
@<TRIPOS>MOLECULE
[[[3,4-dihydroxy-5-(6-imino-1~{H}-purin-9-yl)tetrahydrofuran-2-yl]methoxy-oxido-phosphoryl]oxy-oxido-phosphoryl] hydrogen phosphate
   44    46     1     0     0
SMALL
USER_CHARGES

@<TRIPOS>ATOM
      1 PG         10.2617    3.1624    3.4608 P.3       1 ATP         1.5257
      2 O1G        11.3647    2.8197    2.4843 O.co2     1 ATP        -0.8737
      3 O2G        10.2160    2.5312    4.8346 O.co2     1 ATP        -0.8737
      4 O3G        10.2076    4.7850    3.6337 O.3       1 ATP        -0.7971
      5 PB          8.2613    3.5406    1.3162 P.3       1 ATP         1.6824
      6 O1B         8.1035    5.0387    1.4507 O.co2     1 ATP        -0.8925
      7 O2B         9.0628    2.9357    0.1852 O.co2     1 ATP        -0.8925
      8 O3B         8.8187    2.9440    2.7301 O.3       1 ATP        -0.8047
      9 PA          6.3565    1.2771    1.3734 P.3       1 ATP         1.5908
     10 O1A         6.8004    0.6872    2.6945 O.co2     1 ATP        -0.8932
     11 O2A         6.7697    0.6406    0.0643 O.co2     1 ATP        -0.8932
     12 O3A         6.7801    2.8546    1.3338 O.3       1 ATP        -0.8088
     13 O5'         4.7294    1.4427    1.3696 O.3       1 ATP        -0.5646
     14 C5'         4.0922    1.9801    0.2227 C.3       1 ATP         0.2204
     15 C4'         2.5944    2.0310    0.4653 C.3       1 ATP         0.0965
     16 O4'         1.9327    2.5740   -0.6889 O.3       1 ATP        -0.3907
     17 C3'         1.9685    0.6634    0.6767 C.3       1 ATP         0.0763
     18 O3'         2.1425    0.1975    1.9977 O.3       1 ATP        -0.5884
     19 C2'         0.5176    0.9128    0.3099 C.3       1 ATP         0.0784
     20 O2'        -0.2103    1.4454    1.4152 O.3       1 ATP        -0.6085
     21 C1'         0.6219    1.9765   -0.7844 C.3       1 ATP         0.2186
     22 N9          0.4237    1.4496   -2.1357 N.pl3     1 ATP        -0.1699
     23 C8          1.4069    0.9710   -2.9662 C.ar      1 ATP         0.4438
     24 N7          0.9316    0.5623   -4.1260 N.2       1 ATP        -0.6280
     25 C5         -0.4120    0.7884   -4.0344 C.ar      1 ATP         0.2109
     26 C6         -1.4353    0.5283   -5.0204 C.ar      1 ATP         0.6180
     27 N6         -1.1199    0.0176   -6.1586 N.2       1 ATP        -0.8319
     28 N1         -2.6704    0.9095   -4.5147 N.pl3     1 ATP        -0.8664
     29 C2         -2.8863    1.4571   -3.2520 C.ar      1 ATP         0.5952
     30 N3         -1.9805    1.7017   -2.3442 N.2       1 ATP        -0.5599
     31 C4         -0.7561    1.3381   -2.8112 C.ar      1 ATP         0.0076
     32 HOG3        9.5382    5.1679    4.2399 H         1 ATP         0.4101
     33 H5'1        4.4843    2.9854    0.0380 H         1 ATP         0.0364
     34 H5'2        4.3191    1.3446   -0.6392 H         1 ATP         0.0364
     35 H4'         2.3752    2.7029    1.3156 H         1 ATP         0.0945
     36 H3'         2.4336   -0.1217   -0.0015 H         1 ATP         0.0703
     37 HO3'        3.0987    0.1465    2.1461 H         1 ATP         0.4099
     38 H2'         0.0316    0.0155   -0.0339 H         1 ATP         0.0676
     39 HO2'       -1.1270    1.5823    1.1180 H         1 ATP         0.4291
     40 H1'        -0.1474    2.7798   -0.6651 H         1 ATP         0.0950
     41 H8          2.4466    0.9468   -2.6694 H         1 ATP         0.1135
     42 HN62       -1.9661   -0.0965   -6.7275 H         1 ATP         0.3588
     43 H2         -3.9481    1.6825   -3.0660 H         1 ATP         0.0302
     44 H44        -3.4814    0.7753   -5.1133 H         1 ATP         0.4215
@<TRIPOS>BOND
     1    1    2 2
     2    1    3 1
     3    1    4 1
     4    1    8 1
     5    4   32 1
     6    5    6 2
     7    5    7 1
     8    5    8 1
     9    5   12 1
    10    9   10 2
    11    9   11 1
    12    9   12 1
    13    9   13 1
    14   13   14 1
    15   14   15 1
    16   14   33 1
    17   14   34 1
    18   15   16 1
    19   15   17 1
    20   15   35 1
    21   16   21 1
    22   17   18 1
    23   17   19 1
    24   17   36 1
    25   18   37 1
    26   19   20 1
    27   19   21 1
    28   19   38 1
    29   20   39 1
    30   21   22 1
    31   21   40 1
    32   22   23 ar
    33   22   31 ar
    34   23   24 ar
    35   23   41 1
    36   24   25 ar
    37   25   26 ar
    38   25   31 ar
    39   26   27 2
    40   26   28 ar
    41   27   42 1
    42   28   29 ar
    43   28   44 1
    44   29   30 ar
    45   29   43 1
    46   30   31 ar
@<TRIPOS>SUBSTRUCTURE
     1 ATP         1 GROUP 0 A     ****
@<TRIPOS>MOLECULE
[[[3,4-dihydroxy-5-(6-imino-1~{H}-purin-9-yl)tetrahydrofuran-2-yl]methoxy-oxido-phosphoryl]oxy-oxido-phosphoryl] hydrogen phosphate
   44    46     1     0     0
SMALL
USER_CHARGES

@<TRIPOS>ATOM
      1 PG          9.3442    5.6746   -2.7291 P.3       1 ATP         1.5257
      2 O1G        10.6284    4.9096   -2.4986 O.co2     1 ATP        -0.8737
      3 O2G         9.2149    7.1213   -2.3072 O.co2     1 ATP        -0.8737
      4 O3G         8.9472    5.5576   -4.3085 O.3       1 ATP        -0.7971
      5 PB          7.6584    3.2751   -2.3498 P.3       1 ATP         1.6824
      6 O1B         7.1911    3.1297   -3.7809 O.co2     1 ATP        -0.8925
      7 O2B         8.7255    2.3683   -1.7783 O.co2     1 ATP        -0.8925
      8 O3B         8.1003    4.8266   -2.0986 O.3       1 ATP        -0.8047
      9 PA          6.2486    3.4952    0.2423 P.3       1 ATP         1.5908
     10 O1A         6.5935    4.9413    0.5251 O.co2     1 ATP        -0.8932
     11 O2A         6.9728    2.3737    0.9547 O.co2     1 ATP        -0.8932
     12 O3A         6.3554    3.2347   -1.3672 O.3       1 ATP        -0.8088
     13 O5'         4.6405    3.2699    0.4378 O.3       1 ATP        -0.5646
     14 C5'         4.0922    1.9801    0.2227 C.3       1 ATP         0.2204
     15 C4'         2.5944    2.0310    0.4653 C.3       1 ATP         0.0965
     16 O4'         1.9327    2.5740   -0.6889 O.3       1 ATP        -0.3907
     17 C3'         1.9685    0.6634    0.6767 C.3       1 ATP         0.0763
     18 O3'         2.1425    0.1975    1.9977 O.3       1 ATP        -0.5884
     19 C2'         0.5176    0.9128    0.3099 C.3       1 ATP         0.0784
     20 O2'        -0.2103    1.4454    1.4152 O.3       1 ATP        -0.6085
     21 C1'         0.6219    1.9765   -0.7844 C.3       1 ATP         0.2186
     22 N9          0.4237    1.4496   -2.1357 N.pl3     1 ATP        -0.1699
     23 C8          1.4069    0.9710   -2.9662 C.ar      1 ATP         0.4438
     24 N7          0.9316    0.5623   -4.1260 N.2       1 ATP        -0.6280
     25 C5         -0.4120    0.7884   -4.0344 C.ar      1 ATP         0.2109
     26 C6         -1.4353    0.5283   -5.0204 C.ar      1 ATP         0.6180
     27 N6         -1.1199    0.0176   -6.1586 N.2       1 ATP        -0.8319
     28 N1         -2.6704    0.9095   -4.5147 N.pl3     1 ATP        -0.8664
     29 C2         -2.8863    1.4571   -3.2520 C.ar      1 ATP         0.5952
     30 N3         -1.9805    1.7017   -2.3442 N.2       1 ATP        -0.5599
     31 C4         -0.7561    1.3381   -2.8112 C.ar      1 ATP         0.0076
     32 HOG3        8.1314    6.0051   -4.6192 H         1 ATP         0.4101
     33 H5'1        4.3028    1.6728   -0.8066 H         1 ATP         0.0364
     34 H5'2        4.5677    1.2738    0.9106 H         1 ATP         0.0364
     35 H4'         2.3752    2.7029    1.3156 H         1 ATP         0.0945
     36 H3'         2.4336   -0.1217   -0.0015 H         1 ATP         0.0703
     37 HO3'        1.7138    0.8467    2.5755 H         1 ATP         0.4099
     38 H2'         0.0316    0.0155   -0.0339 H         1 ATP         0.0676
     39 HO2'       -1.1270    1.5823    1.1180 H         1 ATP         0.4291
     40 H1'        -0.1474    2.7798   -0.6651 H         1 ATP         0.0950
     41 H8          2.4466    0.9468   -2.6694 H         1 ATP         0.1135
     42 HN62       -1.9661   -0.0965   -6.7275 H         1 ATP         0.3588
     43 H2         -3.9481    1.6825   -3.0660 H         1 ATP         0.0302
     44 H44        -3.4814    0.7753   -5.1133 H         1 ATP         0.4215
@<TRIPOS>BOND
     1    1    2 2
     2    1    3 1
     3    1    4 1
     4    1    8 1
     5    4   32 1
     6    5    6 2
     7    5    7 1
     8    5    8 1
     9    5   12 1
    10    9   10 2
    11    9   11 1
    12    9   12 1
    13    9   13 1
    14   13   14 1
    15   14   15 1
    16   14   33 1
    17   14   34 1
    18   15   16 1
    19   15   17 1
    20   15   35 1
    21   16   21 1
    22   17   18 1
    23   17   19 1
    24   17   36 1
    25   18   37 1
    26   19   20 1
    27   19   21 1
    28   19   38 1
    29   20   39 1
    30   21   22 1
    31   21   40 1
    32   22   23 ar
    33   22   31 ar
    34   23   24 ar
    35   23   41 1
    36   24   25 ar
    37   25   26 ar
    38   25   31 ar
    39   26   27 2
    40   26   28 ar
    41   27   42 1
    42   28   29 ar
    43   28   44 1
    44   29   30 ar
    45   29   43 1
    46   30   31 ar
@<TRIPOS>SUBSTRUCTURE
     1 ATP         1 GROUP 0 A     ****
@<TRIPOS>MOLECULE
[[[3,4-dihydroxy-5-(6-imino-1~{H}-purin-9-yl)tetrahydrofuran-2-yl]methoxy-oxido-phosphoryl]oxy-oxido-phosphoryl] hydrogen phosphate
   44    46     1     0     0
SMALL
USER_CHARGES

@<TRIPOS>ATOM
      1 PG         -4.4124    4.6532   -4.1619 P.3       1 ATP         1.5257
      2 O1G        -4.5752    3.4805   -5.1031 O.co2     1 ATP        -0.8737
      3 O2G        -3.7454    5.9309   -4.6203 O.co2     1 ATP        -0.8737
      4 O3G        -5.8754    5.0262   -3.5401 O.3       1 ATP        -0.7971
      5 PB         -3.4050    4.9355   -1.3962 P.3       1 ATP         1.6824
      6 O1B        -2.4015    6.0362   -1.6594 O.co2     1 ATP        -0.8925
      7 O2B        -4.7304    5.2271   -0.7286 O.co2     1 ATP        -0.8925
      8 O3B        -3.6867    4.1391   -2.7934 O.3       1 ATP        -0.8047
      9 PA         -1.2907    2.9172   -0.9365 P.3       1 ATP         1.5908
     10 O1A        -0.1221    3.8764   -0.8702 O.co2     1 ATP        -0.8932
     11 O2A        -1.5403    2.0866   -2.1765 O.co2     1 ATP        -0.8932
     12 O3A        -2.6609    3.7331   -0.5806 O.3       1 ATP        -0.8088
     13 O5'        -1.2434    1.9104    0.3515 O.3       1 ATP        -0.5646
     14 C5'        -0.8811    2.4285    1.6206 C.3       1 ATP         0.2204
     15 C4'        -0.1994    1.3333    2.4288 C.3       1 ATP         0.0965
     16 O4'        -1.1285    0.2356    2.5840 O.3       1 ATP        -0.3907
     17 C3'         1.0324    0.7610    1.7344 C.3       1 ATP         0.0763
     18 O3'         1.9175    0.2377    2.7247 O.3       1 ATP        -0.5884
     19 C2'         0.4468   -0.3802    0.9263 C.3       1 ATP         0.0784
     20 O2'         1.3993   -1.3703    0.5961 O.3       1 ATP        -0.6085
     21 C1'        -0.6159   -0.9100    1.8769 C.3       1 ATP         0.2186
     22 N9         -1.7127   -1.6108    1.2130 N.pl3     1 ATP        -0.1699
     23 C8         -2.8662   -1.0361    0.7388 C.ar      1 ATP         0.4438
     24 N7         -3.6774   -1.9166    0.1867 N.2       1 ATP        -0.6280
     25 C5         -3.0159   -3.1045    0.3122 C.ar      1 ATP         0.2109
     26 C6         -3.4377   -4.4169   -0.1199 C.ar      1 ATP         0.6180
     27 N6         -4.5720   -4.5691   -0.7080 N.2       1 ATP        -0.8319
     28 N1         -2.4600   -5.3463    0.2071 N.pl3     1 ATP        -0.8664
     29 C2         -1.2595   -5.0554    0.8515 C.ar      1 ATP         0.5952
     30 N3         -0.8555   -3.8803    1.2516 N.2       1 ATP        -0.5599
     31 C4         -1.7946   -2.9457    0.9448 C.ar      1 ATP         0.0076
     32 HOG3       -5.9368    5.7723   -2.9062 H         1 ATP         0.4101
     33 H5'1       -0.2033    3.2760    1.4769 H         1 ATP         0.0364
     34 H5'2       -1.7841    2.7762    2.1323 H         1 ATP         0.0364
     35 H4'         0.0403    1.7078    3.4343 H         1 ATP         0.0945
     36 H3'         1.5907    1.4859    1.1353 H         1 ATP         0.0703
     37 HO3'        2.6839   -0.1150    2.2479 H         1 ATP         0.4099
     38 H2'        -0.0017    0.0018    0.0005 H         1 ATP         0.0676
     39 HO2'        2.0953   -0.9375    0.0709 H         1 ATP         0.4291
     40 H1'        -0.1998   -1.6319    2.6178 H         1 ATP         0.0950
     41 H8         -3.0558    0.0252    0.8256 H         1 ATP         0.1135
     42 HN62       -4.7047   -5.5592   -0.9421 H         1 ATP         0.3588
     43 H2         -0.6372   -5.9505    1.0077 H         1 ATP         0.0302
     44 H44        -2.6338   -6.3155   -0.0469 H         1 ATP         0.4215
@<TRIPOS>BOND
     1    1    2 2
     2    1    3 1
     3    1    4 1
     4    1    8 1
     5    4   32 1
     6    5    6 2
     7    5    7 1
     8    5    8 1
     9    5   12 1
    10    9   10 2
    11    9   11 1
    12    9   12 1
    13    9   13 1
    14   13   14 1
    15   14   15 1
    16   14   33 1
    17   14   34 1
    18   15   16 1
    19   15   17 1
    20   15   35 1
    21   16   21 1
    22   17   18 1
    23   17   19 1
    24   17   36 1
    25   18   37 1
    26   19   20 1
    27   19   21 1
    28   19   38 1
    29   20   39 1
    30   21   22 1
    31   21   40 1
    32   22   23 ar
    33   22   31 ar
    34   23   24 ar
    35   23   41 1
    36   24   25 ar
    37   25   26 ar
    38   25   31 ar
    39   26   27 2
    40   26   28 ar
    41   27   42 1
    42   28   29 ar
    43   28   44 1
    44   29   30 ar
    45   29   43 1
    46   30   31 ar
@<TRIPOS>SUBSTRUCTURE
     1 ATP         1 GROUP 0 A     ****
@<TRIPOS>MOLECULE
[[[3,4-dihydroxy-5-(6-imino-1~{H}-purin-9-yl)tetrahydrofuran-2-yl]methoxy-oxido-phosphoryl]oxy-oxido-phosphoryl] hydrogen phosphate
   44    46     1     0     0
SMALL
USER_CHARGES

@<TRIPOS>ATOM
      1 PG         10.8064    0.4560    1.1877 P.3       1 ATP         1.5257
      2 O1G        11.5317    1.7017    1.6454 O.co2     1 ATP        -0.8737
      3 O2G        11.3057   -0.3439    0.0050 O.co2     1 ATP        -0.8737
      4 O3G        10.6472   -0.5500    2.4638 O.3       1 ATP        -0.7971
      5 PB          8.5294    1.7816   -0.1547 P.3       1 ATP         1.6824
      6 O1B         8.9387    3.2113    0.1205 O.co2     1 ATP        -0.8925
      7 O2B         8.7149    1.1630   -1.5223 O.co2     1 ATP        -0.8925
      8 O3B         9.2306    0.8132    0.9572 O.3       1 ATP        -0.8047
      9 PA          6.2528    1.9160    1.7305 P.3       1 ATP         1.5908
     10 O1A         6.2767    3.4128    1.9525 O.co2     1 ATP        -0.8932
     11 O2A         6.8066    0.9703    2.7738 O.co2     1 ATP        -0.8932
     12 O3A         6.9747    1.5851    0.3025 O.3       1 ATP        -0.8088
     13 O5'         4.7294    1.4427    1.3696 O.3       1 ATP        -0.5646
     14 C5'         4.0922    1.9801    0.2227 C.3       1 ATP         0.2204
     15 C4'         2.5944    2.0310    0.4653 C.3       1 ATP         0.0965
     16 O4'         1.9327    2.5740   -0.6889 O.3       1 ATP        -0.3907
     17 C3'         1.9685    0.6634    0.6767 C.3       1 ATP         0.0763
     18 O3'         2.1425    0.1975    1.9977 O.3       1 ATP        -0.5884
     19 C2'         0.5176    0.9128    0.3099 C.3       1 ATP         0.0784
     20 O2'        -0.2103    1.4454    1.4152 O.3       1 ATP        -0.6085
     21 C1'         0.6219    1.9765   -0.7844 C.3       1 ATP         0.2186
     22 N9          0.4237    1.4496   -2.1357 N.pl3     1 ATP        -0.1699
     23 C8          1.4069    0.9710   -2.9662 C.ar      1 ATP         0.4438
     24 N7          0.9316    0.5623   -4.1260 N.2       1 ATP        -0.6280
     25 C5         -0.4120    0.7884   -4.0344 C.ar      1 ATP         0.2109
     26 C6         -1.4353    0.5283   -5.0204 C.ar      1 ATP         0.6180
     27 N6         -1.1199    0.0176   -6.1586 N.2       1 ATP        -0.8319
     28 N1         -2.6704    0.9095   -4.5147 N.pl3     1 ATP        -0.8664
     29 C2         -2.8863    1.4571   -3.2520 C.ar      1 ATP         0.5952
     30 N3         -1.9805    1.7017   -2.3442 N.2       1 ATP        -0.5599
     31 C4         -0.7561    1.3381   -2.8112 C.ar      1 ATP         0.0076
     32 HOG3       10.1935   -1.4090    2.3275 H         1 ATP         0.4101
     33 H5'1        4.4843    2.9854    0.0380 H         1 ATP         0.0364
     34 H5'2        4.3191    1.3446   -0.6392 H         1 ATP         0.0364
     35 H4'         2.3752    2.7029    1.3156 H         1 ATP         0.0945
     36 H3'         2.4336   -0.1217   -0.0015 H         1 ATP         0.0703
     37 HO3'        3.0987    0.1465    2.1461 H         1 ATP         0.4099
     38 H2'         0.0316    0.0155   -0.0339 H         1 ATP         0.0676
     39 HO2'       -0.1608    0.7921    2.1351 H         1 ATP         0.4291
     40 H1'        -0.1474    2.7798   -0.6651 H         1 ATP         0.0950
     41 H8          2.4466    0.9468   -2.6694 H         1 ATP         0.1135
     42 HN62       -1.9661   -0.0965   -6.7275 H         1 ATP         0.3588
     43 H2         -3.9481    1.6825   -3.0660 H         1 ATP         0.0302
     44 H44        -3.4814    0.7753   -5.1133 H         1 ATP         0.4215
@<TRIPOS>BOND
     1    1    2 2
     2    1    3 1
     3    1    4 1
     4    1    8 1
     5    4   32 1
     6    5    6 2
     7    5    7 1
     8    5    8 1
     9    5   12 1
    10    9   10 2
    11    9   11 1
    12    9   12 1
    13    9   13 1
    14   13   14 1
    15   14   15 1
    16   14   33 1
    17   14   34 1
    18   15   16 1
    19   15   17 1
    20   15   35 1
    21   16   21 1
    22   17   18 1
    23   17   19 1
    24   17   36 1
    25   18   37 1
    26   19   20 1
    27   19   21 1
    28   19   38 1
    29   20   39 1
    30   21   22 1
    31   21   40 1
    32   22   23 ar
    33   22   31 ar
    34   23   24 ar
    35   23   41 1
    36   24   25 ar
    37   25   26 ar
    38   25   31 ar
    39   26   27 2
    40   26   28 ar
    41   27   42 1
    42   28   29 ar
    43   28   44 1
    44   29   30 ar
    45   29   43 1
    46   30   31 ar
@<TRIPOS>SUBSTRUCTURE
     1 ATP         1 GROUP 0 A     ****
@<TRIPOS>MOLECULE
[[[3,4-dihydroxy-5-(6-imino-1~{H}-purin-9-yl)tetrahydrofuran-2-yl]methoxy-oxido-phosphoryl]oxy-oxido-phosphoryl] hydrogen phosphate
   44    46     1     0     0
SMALL
USER_CHARGES

@<TRIPOS>ATOM
      1 PG         -4.2348    3.7985   -1.9323 P.3       1 ATP         1.5257
      2 O1G        -2.8614    4.1590   -1.4114 O.co2     1 ATP        -0.8737
      3 O2G        -5.3474    4.8227   -1.9645 O.co2     1 ATP        -0.8737
      4 O3G        -4.0720    3.1628   -3.4274 O.3       1 ATP        -0.7971
      5 PB         -5.1692    2.2616    0.4146 P.3       1 ATP         1.6824
      6 O1B        -6.1848    3.3160    0.7947 O.co2     1 ATP        -0.8925
      7 O2B        -5.4355    0.7931    0.6598 O.co2     1 ATP        -0.8925
      8 O3B        -4.7652    2.4656   -1.1540 O.3       1 ATP        -0.8047
      9 PA         -3.2890    2.7005    2.6567 P.3       1 ATP         1.5908
     10 O1A        -3.3276    1.2949    3.2163 O.co2     1 ATP        -0.8932
     11 O2A        -4.0474    3.8228    3.3313 O.co2     1 ATP        -0.8932
     12 O3A        -3.7331    2.6526    1.0850 O.3       1 ATP        -0.8088
     13 O5'        -1.7336    3.1724    2.4750 O.3       1 ATP        -0.5646
     14 C5'        -0.8811    2.4285    1.6206 C.3       1 ATP         0.2204
     15 C4'        -0.1994    1.3333    2.4288 C.3       1 ATP         0.0965
     16 O4'        -1.1285    0.2356    2.5840 O.3       1 ATP        -0.3907
     17 C3'         1.0324    0.7610    1.7344 C.3       1 ATP         0.0763
     18 O3'         1.9175    0.2377    2.7247 O.3       1 ATP        -0.5884
     19 C2'         0.4468   -0.3802    0.9263 C.3       1 ATP         0.0784
     20 O2'         1.3993   -1.3703    0.5961 O.3       1 ATP        -0.6085
     21 C1'        -0.6159   -0.9100    1.8769 C.3       1 ATP         0.2186
     22 N9         -1.7127   -1.6108    1.2130 N.pl3     1 ATP        -0.1699
     23 C8         -2.5485   -1.0808    0.2609 C.ar      1 ATP         0.4438
     24 N7         -3.4476   -1.9486   -0.1593 N.2       1 ATP        -0.6280
     25 C5         -3.1762   -3.0816    0.5530 C.ar      1 ATP         0.2109
     26 C6         -3.8510   -4.3579    0.5006 C.ar      1 ATP         0.6180
     27 N6         -4.8468   -4.5293   -0.2961 N.2       1 ATP        -0.8319
     28 N1         -3.2499   -5.2342    1.3937 N.pl3     1 ATP        -0.8664
     29 C2         -2.1646   -4.9275    2.2116 C.ar      1 ATP         0.5952
     30 N3         -1.5382   -3.7840    2.2778 N.2       1 ATP        -0.5599
     31 C4         -2.1054   -2.9018    1.4120 C.ar      1 ATP         0.0076
     32 HOG3       -4.8804    2.8767   -3.9037 H         1 ATP         0.4101
     33 H5'1       -1.4800    1.9927    0.8146 H         1 ATP         0.0364
     34 H5'2       -0.1367    3.1040    1.1872 H         1 ATP         0.0364
     35 H4'         0.0403    1.7078    3.4343 H         1 ATP         0.0945
     36 H3'         1.5907    1.4859    1.1353 H         1 ATP         0.0703
     37 HO3'        2.6839   -0.1150    2.2479 H         1 ATP         0.4099
     38 H2'        -0.0017    0.0018    0.0005 H         1 ATP         0.0676
     39 HO2'        2.0953   -0.9375    0.0709 H         1 ATP         0.4291
     40 H1'        -0.1998   -1.6319    2.6178 H         1 ATP         0.0950
     41 H8         -2.4515   -0.0599   -0.0829 H         1 ATP         0.1135
     42 HN62       -5.1990   -5.4882   -0.2005 H         1 ATP         0.3588
     43 H2         -1.8555   -5.7783    2.8388 H         1 ATP         0.0302
     44 H44        -3.6312   -6.1750    1.4526 H         1 ATP         0.4215
@<TRIPOS>BOND
     1    1    2 2
     2    1    3 1
     3    1    4 1
     4    1    8 1
     5    4   32 1
     6    5    6 2
     7    5    7 1
     8    5    8 1
     9    5   12 1
    10    9   10 2
    11    9   11 1
    12    9   12 1
    13    9   13 1
    14   13   14 1
    15   14   15 1
    16   14   33 1
    17   14   34 1
    18   15   16 1
    19   15   17 1
    20   15   35 1
    21   16   21 1
    22   17   18 1
    23   17   19 1
    24   17   36 1
    25   18   37 1
    26   19   20 1
    27   19   21 1
    28   19   38 1
    29   20   39 1
    30   21   22 1
    31   21   40 1
    32   22   23 ar
    33   22   31 ar
    34   23   24 ar
    35   23   41 1
    36   24   25 ar
    37   25   26 ar
    38   25   31 ar
    39   26   27 2
    40   26   28 ar
    41   27   42 1
    42   28   29 ar
    43   28   44 1
    44   29   30 ar
    45   29   43 1
    46   30   31 ar
@<TRIPOS>SUBSTRUCTURE
     1 ATP         1 GROUP 0 A     ****
@<TRIPOS>MOLECULE
[[[3,4-dihydroxy-5-(6-imino-1~{H}-purin-9-yl)tetrahydrofuran-2-yl]methoxy-oxido-phosphoryl]oxy-oxido-phosphoryl] hydrogen phosphate
   44    46     1     0     0
SMALL
USER_CHARGES

@<TRIPOS>ATOM
      1 PG          7.8271    1.0633    5.2245 P.3       1 ATP         1.5257
      2 O1G         7.1121    0.0358    6.0732 O.co2     1 ATP        -0.8737
      3 O2G         8.6141    2.1865    5.8623 O.co2     1 ATP        -0.8737
      4 O3G         8.8003    0.2807    4.1726 O.3       1 ATP        -0.7971
      5 PB          5.4600    2.6391    4.4138 P.3       1 ATP         1.6824
      6 O1B         4.4168    1.8269    5.1484 O.co2     1 ATP        -0.8925
      7 O2B         5.9219    3.9800    4.9394 O.co2     1 ATP        -0.8925
      8 O3B         6.7695    1.6986    4.1561 O.3       1 ATP        -0.8047
      9 PA          5.7823    3.4683    1.5918 P.3       1 ATP         1.5908
     10 O1A         6.9788    2.5984    1.2726 O.co2     1 ATP        -0.8932
     11 O2A         5.9489    4.9514    1.8416 O.co2     1 ATP        -0.8932
     12 O3A         4.9854    2.8199    2.8624 O.3       1 ATP        -0.8088
     13 O5'         4.6405    3.2699    0.4378 O.3       1 ATP        -0.5646
     14 C5'         4.0922    1.9801    0.2227 C.3       1 ATP         0.2204
     15 C4'         2.5944    2.0310    0.4653 C.3       1 ATP         0.0965
     16 O4'         1.9327    2.5740   -0.6889 O.3       1 ATP        -0.3907
     17 C3'         1.9685    0.6634    0.6767 C.3       1 ATP         0.0763
     18 O3'         2.1425    0.1975    1.9977 O.3       1 ATP        -0.5884
     19 C2'         0.5176    0.9128    0.3099 C.3       1 ATP         0.0784
     20 O2'        -0.2103    1.4454    1.4152 O.3       1 ATP        -0.6085
     21 C1'         0.6219    1.9765   -0.7844 C.3       1 ATP         0.2186
     22 N9          0.4237    1.4496   -2.1357 N.pl3     1 ATP        -0.1699
     23 C8          1.4069    0.9710   -2.9662 C.ar      1 ATP         0.4438
     24 N7          0.9316    0.5623   -4.1260 N.2       1 ATP        -0.6280
     25 C5         -0.4120    0.7884   -4.0344 C.ar      1 ATP         0.2109
     26 C6         -1.4353    0.5283   -5.0204 C.ar      1 ATP         0.6180
     27 N6         -1.1199    0.0176   -6.1586 N.2       1 ATP        -0.8319
     28 N1         -2.6704    0.9095   -4.5147 N.pl3     1 ATP        -0.8664
     29 C2         -2.8863    1.4571   -3.2520 C.ar      1 ATP         0.5952
     30 N3         -1.9805    1.7017   -2.3442 N.2       1 ATP        -0.5599
     31 C4         -0.7561    1.3381   -2.8112 C.ar      1 ATP         0.0076
     32 HOG3        9.3365    0.8136    3.5475 H         1 ATP         0.4101
     33 H5'1        4.3028    1.6728   -0.8066 H         1 ATP         0.0364
     34 H5'2        4.5677    1.2738    0.9106 H         1 ATP         0.0364
     35 H4'         2.3752    2.7029    1.3156 H         1 ATP         0.0945
     36 H3'         2.4336   -0.1217   -0.0015 H         1 ATP         0.0703
     37 HO3'        1.7160   -0.6716    2.0397 H         1 ATP         0.4099
     38 H2'         0.0316    0.0155   -0.0339 H         1 ATP         0.0676
     39 HO2'       -0.1608    0.7921    2.1351 H         1 ATP         0.4291
     40 H1'        -0.1474    2.7798   -0.6651 H         1 ATP         0.0950
     41 H8          2.4466    0.9468   -2.6694 H         1 ATP         0.1135
     42 HN62       -1.9661   -0.0965   -6.7275 H         1 ATP         0.3588
     43 H2         -3.9481    1.6825   -3.0660 H         1 ATP         0.0302
     44 H44        -3.4814    0.7753   -5.1133 H         1 ATP         0.4215
@<TRIPOS>BOND
     1    1    2 2
     2    1    3 1
     3    1    4 1
     4    1    8 1
     5    4   32 1
     6    5    6 2
     7    5    7 1
     8    5    8 1
     9    5   12 1
    10    9   10 2
    11    9   11 1
    12    9   12 1
    13    9   13 1
    14   13   14 1
    15   14   15 1
    16   14   33 1
    17   14   34 1
    18   15   16 1
    19   15   17 1
    20   15   35 1
    21   16   21 1
    22   17   18 1
    23   17   19 1
    24   17   36 1
    25   18   37 1
    26   19   20 1
    27   19   21 1
    28   19   38 1
    29   20   39 1
    30   21   22 1
    31   21   40 1
    32   22   23 ar
    33   22   31 ar
    34   23   24 ar
    35   23   41 1
    36   24   25 ar
    37   25   26 ar
    38   25   31 ar
    39   26   27 2
    40   26   28 ar
    41   27   42 1
    42   28   29 ar
    43   28   44 1
    44   29   30 ar
    45   29   43 1
    46   30   31 ar
@<TRIPOS>SUBSTRUCTURE
     1 ATP         1 GROUP 0 A     ****
@<TRIPOS>MOLECULE
[[[3,4-dihydroxy-5-(6-imino-1~{H}-purin-9-yl)tetrahydrofuran-2-yl]methoxy-oxido-phosphoryl]oxy-oxido-phosphoryl] hydrogen phosphate
   44    46     1     0     0
SMALL
USER_CHARGES

@<TRIPOS>ATOM
      1 PG          7.4680    1.0361   -5.2677 P.3       1 ATP         1.5257
      2 O1G         6.3420    0.4787   -6.1097 O.co2     1 ATP        -0.8737
      3 O2G         8.6710    0.1882   -4.9189 O.co2     1 ATP        -0.8737
      4 O3G         7.9919    2.4218   -5.9540 O.3       1 ATP        -0.7971
      5 PB          7.5743    2.5160   -2.7100 P.3       1 ATP         1.6824
      6 O1B         8.5587    1.6156   -1.9976 O.co2     1 ATP        -0.8925
      7 O2B         8.0006    3.8547   -3.2702 O.co2     1 ATP        -0.8925
      8 O3B         6.8453    1.6610   -3.8946 O.3       1 ATP        -0.8047
      9 PA          6.1593    3.5241   -0.3148 P.3       1 ATP         1.5908
     10 O1A         6.4223    4.9968   -0.5434 O.co2     1 ATP        -0.8932
     11 O2A         6.9473    2.7489    0.7186 O.co2     1 ATP        -0.8932
     12 O3A         6.2776    2.7414   -1.7442 O.3       1 ATP        -0.8088
     13 O5'         4.5670    3.2937   -0.0211 O.3       1 ATP        -0.5646
     14 C5'         4.0922    1.9801    0.2227 C.3       1 ATP         0.2204
     15 C4'         2.5944    2.0310    0.4653 C.3       1 ATP         0.0965
     16 O4'         1.9327    2.5740   -0.6889 O.3       1 ATP        -0.3907
     17 C3'         1.9685    0.6634    0.6767 C.3       1 ATP         0.0763
     18 O3'         2.1425    0.1975    1.9977 O.3       1 ATP        -0.5884
     19 C2'         0.5176    0.9128    0.3099 C.3       1 ATP         0.0784
     20 O2'        -0.2103    1.4454    1.4152 O.3       1 ATP        -0.6085
     21 C1'         0.6219    1.9765   -0.7844 C.3       1 ATP         0.2186
     22 N9          0.4237    1.4496   -2.1357 N.pl3     1 ATP        -0.1699
     23 C8          1.1891    0.4862   -2.7452 C.ar      1 ATP         0.4438
     24 N7          0.7743    0.2113   -3.9661 N.2       1 ATP        -0.6280
     25 C5         -0.3017    1.0326   -4.1458 C.ar      1 ATP         0.2109
     26 C6         -1.1512    1.1578   -5.3076 C.ar      1 ATP         0.6180
     27 N6         -0.9306    0.4354   -6.3493 N.2       1 ATP        -0.8319
     28 N1         -2.1281    2.1133   -5.0636 N.pl3     1 ATP        -0.8664
     29 C2         -2.2653    2.8370   -3.8811 C.ar      1 ATP         0.5952
     30 N3         -1.5123    2.7429   -2.8189 N.2       1 ATP        -0.5599
     31 C4         -0.5429    1.8121   -3.0273 C.ar      1 ATP         0.0076
     32 HOG3        8.7264    2.9081   -5.5223 H         1 ATP         0.4101
     33 H5'1        4.3179    1.3548   -0.6470 H         1 ATP         0.0364
     34 H5'2        4.6083    1.5737    1.0983 H         1 ATP         0.0364
     35 H4'         2.3752    2.7029    1.3156 H         1 ATP         0.0945
     36 H3'         2.4336   -0.1217   -0.0015 H         1 ATP         0.0703
     37 HO3'        3.0987    0.1465    2.1461 H         1 ATP         0.4099
     38 H2'         0.0316    0.0155   -0.0339 H         1 ATP         0.0676
     39 HO2'       -0.1608    0.7921    2.1351 H         1 ATP         0.4291
     40 H1'        -0.1474    2.7798   -0.6651 H         1 ATP         0.0950
     41 H8          2.0323    0.0251   -2.2492 H         1 ATP         0.1135
     42 HN62       -1.6261    0.6558   -7.0707 H         1 ATP         0.3588
     43 H2         -3.1123    3.5402   -3.9130 H         1 ATP         0.0302
     44 H44        -2.7975    2.2966   -5.8068 H         1 ATP         0.4215
@<TRIPOS>BOND
     1    1    2 2
     2    1    3 1
     3    1    4 1
     4    1    8 1
     5    4   32 1
     6    5    6 2
     7    5    7 1
     8    5    8 1
     9    5   12 1
    10    9   10 2
    11    9   11 1
    12    9   12 1
    13    9   13 1
    14   13   14 1
    15   14   15 1
    16   14   33 1
    17   14   34 1
    18   15   16 1
    19   15   17 1
    20   15   35 1
    21   16   21 1
    22   17   18 1
    23   17   19 1
    24   17   36 1
    25   18   37 1
    26   19   20 1
    27   19   21 1
    28   19   38 1
    29   20   39 1
    30   21   22 1
    31   21   40 1
    32   22   23 ar
    33   22   31 ar
    34   23   24 ar
    35   23   41 1
    36   24   25 ar
    37   25   26 ar
    38   25   31 ar
    39   26   27 2
    40   26   28 ar
    41   27   42 1
    42   28   29 ar
    43   28   44 1
    44   29   30 ar
    45   29   43 1
    46   30   31 ar
@<TRIPOS>SUBSTRUCTURE
     1 ATP         1 GROUP 0 A     ****
@<TRIPOS>MOLECULE
[[[3,4-dihydroxy-5-(6-imino-1~{H}-purin-9-yl)tetrahydrofuran-2-yl]methoxy-oxido-phosphoryl]oxy-oxido-phosphoryl] hydrogen phosphate
   44    46     1     0     0
SMALL
USER_CHARGES

@<TRIPOS>ATOM
      1 PG          8.4621   -0.0867   -0.2358 P.3       1 ATP         1.5257
      2 O1G         7.8051   -0.5843   -1.5040 O.co2     1 ATP        -0.8737
      3 O2G         7.8281   -0.3310    1.1155 O.co2     1 ATP        -0.8737
      4 O3G         9.9977   -0.6401   -0.1957 O.3       1 ATP        -0.7971
      5 PB          7.7510    2.7709   -0.5040 P.3       1 ATP         1.6824
      6 O1B         8.5529    4.0526   -0.4610 O.co2     1 ATP        -0.8925
      7 O2B         6.7682    2.4989   -1.6210 O.co2     1 ATP        -0.8925
      8 O3B         8.7783    1.5069   -0.3914 O.3       1 ATP        -0.8047
      9 PA          5.7823    3.4683    1.5918 P.3       1 ATP         1.5908
     10 O1A         6.2104    4.9193    1.6338 O.co2     1 ATP        -0.8932
     11 O2A         5.3136    2.7635    2.8462 O.co2     1 ATP        -0.8932
     12 O3A         6.9844    2.5850    0.9251 O.3       1 ATP        -0.8088
     13 O5'         4.6405    3.2699    0.4378 O.3       1 ATP        -0.5646
     14 C5'         4.0922    1.9801    0.2227 C.3       1 ATP         0.2204
     15 C4'         2.5944    2.0310    0.4653 C.3       1 ATP         0.0965
     16 O4'         1.9327    2.5740   -0.6889 O.3       1 ATP        -0.3907
     17 C3'         1.9685    0.6634    0.6767 C.3       1 ATP         0.0763
     18 O3'         2.1425    0.1975    1.9977 O.3       1 ATP        -0.5884
     19 C2'         0.5176    0.9128    0.3099 C.3       1 ATP         0.0784
     20 O2'        -0.2103    1.4454    1.4152 O.3       1 ATP        -0.6085
     21 C1'         0.6219    1.9765   -0.7844 C.3       1 ATP         0.2186
     22 N9          0.4237    1.4496   -2.1357 N.pl3     1 ATP        -0.1699
     23 C8          1.4069    0.9710   -2.9662 C.ar      1 ATP         0.4438
     24 N7          0.9316    0.5623   -4.1260 N.2       1 ATP        -0.6280
     25 C5         -0.4120    0.7884   -4.0344 C.ar      1 ATP         0.2109
     26 C6         -1.4353    0.5283   -5.0204 C.ar      1 ATP         0.6180
     27 N6         -1.1199    0.0176   -6.1586 N.2       1 ATP        -0.8319
     28 N1         -2.6704    0.9095   -4.5147 N.pl3     1 ATP        -0.8664
     29 C2         -2.8863    1.4571   -3.2520 C.ar      1 ATP         0.5952
     30 N3         -1.9805    1.7017   -2.3442 N.2       1 ATP        -0.5599
     31 C4         -0.7561    1.3381   -2.8112 C.ar      1 ATP         0.0076
     32 HOG3       10.5602   -0.4011    0.5716 H         1 ATP         0.4101
     33 H5'1        4.3028    1.6728   -0.8066 H         1 ATP         0.0364
     34 H5'2        4.5677    1.2738    0.9106 H         1 ATP         0.0364
     35 H4'         2.3752    2.7029    1.3156 H         1 ATP         0.0945
     36 H3'         2.4336   -0.1217   -0.0015 H         1 ATP         0.0703
     37 HO3'        1.7160   -0.6716    2.0397 H         1 ATP         0.4099
     38 H2'         0.0316    0.0155   -0.0339 H         1 ATP         0.0676
     39 HO2'       -0.1608    0.7921    2.1351 H         1 ATP         0.4291
     40 H1'        -0.1474    2.7798   -0.6651 H         1 ATP         0.0950
     41 H8          2.4466    0.9468   -2.6694 H         1 ATP         0.1135
     42 HN62       -1.9661   -0.0965   -6.7275 H         1 ATP         0.3588
     43 H2         -3.9481    1.6825   -3.0660 H         1 ATP         0.0302
     44 H44        -3.4814    0.7753   -5.1133 H         1 ATP         0.4215
@<TRIPOS>BOND
     1    1    2 2
     2    1    3 1
     3    1    4 1
     4    1    8 1
     5    4   32 1
     6    5    6 2
     7    5    7 1
     8    5    8 1
     9    5   12 1
    10    9   10 2
    11    9   11 1
    12    9   12 1
    13    9   13 1
    14   13   14 1
    15   14   15 1
    16   14   33 1
    17   14   34 1
    18   15   16 1
    19   15   17 1
    20   15   35 1
    21   16   21 1
    22   17   18 1
    23   17   19 1
    24   17   36 1
    25   18   37 1
    26   19   20 1
    27   19   21 1
    28   19   38 1
    29   20   39 1
    30   21   22 1
    31   21   40 1
    32   22   23 ar
    33   22   31 ar
    34   23   24 ar
    35   23   41 1
    36   24   25 ar
    37   25   26 ar
    38   25   31 ar
    39   26   27 2
    40   26   28 ar
    41   27   42 1
    42   28   29 ar
    43   28   44 1
    44   29   30 ar
    45   29   43 1
    46   30   31 ar
@<TRIPOS>SUBSTRUCTURE
     1 ATP         1 GROUP 0 A     ****
@<TRIPOS>MOLECULE
[[[3,4-dihydroxy-5-(6-imino-1~{H}-purin-9-yl)tetrahydrofuran-2-yl]methoxy-oxido-phosphoryl]oxy-oxido-phosphoryl] hydrogen phosphate
   44    46     1     0     0
SMALL
USER_CHARGES

@<TRIPOS>ATOM
      1 PG          0.6914    2.1626    8.0651 P.3       1 ATP         1.5257
      2 O1G         1.2687    0.7649    8.0399 O.co2     1 ATP        -0.8737
      3 O2G        -0.2329    2.6018    9.1788 O.co2     1 ATP        -0.8737
      4 O3G         1.9197    3.2331    7.9584 O.3       1 ATP        -0.7971
      5 PB         -0.6704    3.8529    6.0572 P.3       1 ATP         1.6824
      6 O1B        -1.8924    4.1965    6.8794 O.co2     1 ATP        -0.8925
      7 O2B         0.4426    4.8561    5.8512 O.co2     1 ATP        -0.8925
      8 O3B        -0.0262    2.4669    6.6312 O.3       1 ATP        -0.8047
      9 PA         -1.9156    4.0918    3.3837 P.3       1 ATP         1.5908
     10 O1A        -0.9829    5.1484    2.8323 O.co2     1 ATP        -0.8932
     11 O2A        -3.3087    4.4562    3.8486 O.co2     1 ATP        -0.8932
     12 O3A        -1.1581    3.3049    4.5989 O.3       1 ATP        -0.8088
     13 O5'        -2.0401    2.8620    2.3128 O.3       1 ATP        -0.5646
     14 C5'        -0.8811    2.4285    1.6206 C.3       1 ATP         0.2204
     15 C4'        -0.1994    1.3333    2.4288 C.3       1 ATP         0.0965
     16 O4'        -1.1285    0.2356    2.5840 O.3       1 ATP        -0.3907
     17 C3'         1.0324    0.7610    1.7344 C.3       1 ATP         0.0763
     18 O3'         1.9175    0.2377    2.7247 O.3       1 ATP        -0.5884
     19 C2'         0.4468   -0.3802    0.9263 C.3       1 ATP         0.0784
     20 O2'         1.3993   -1.3703    0.5961 O.3       1 ATP        -0.6085
     21 C1'        -0.6159   -0.9100    1.8769 C.3       1 ATP         0.2186
     22 N9         -1.7127   -1.6108    1.2130 N.pl3     1 ATP        -0.1699
     23 C8         -1.7690   -2.9583    0.9549 C.ar      1 ATP         0.4438
     24 N7         -2.8827   -3.3076    0.3418 N.2       1 ATP        -0.6280
     25 C5         -3.5683   -2.1351    0.2017 C.ar      1 ATP         0.2109
     26 C6         -4.8617   -1.9185   -0.4044 C.ar      1 ATP         0.6180
     27 N6         -5.5166   -2.9094   -0.8993 N.2       1 ATP        -0.8319
     28 N1         -5.1837   -0.5701   -0.3344 N.pl3     1 ATP        -0.8664
     29 C2         -4.3821    0.4180    0.2330 C.ar      1 ATP         0.5952
     30 N3         -3.2117    0.2488    0.7860 N.2       1 ATP        -0.5599
     31 C4         -2.8672   -1.0657    0.7327 C.ar      1 ATP         0.0076
     32 HOG3        1.7062    4.1905    7.9619 H         1 ATP         0.4101
     33 H5'1       -1.1767    2.0502    0.6368 H         1 ATP         0.0364
     34 H5'2       -0.2080    3.2814    1.4876 H         1 ATP         0.0364
     35 H4'         0.0403    1.7078    3.4343 H         1 ATP         0.0945
     36 H3'         1.5907    1.4859    1.1353 H         1 ATP         0.0703
     37 HO3'        2.6839   -0.1150    2.2479 H         1 ATP         0.4099
     38 H2'        -0.0017    0.0018    0.0005 H         1 ATP         0.0676
     39 HO2'        2.0953   -0.9375    0.0709 H         1 ATP         0.4291
     40 H1'        -0.1998   -1.6319    2.6178 H         1 ATP         0.0950
     41 H8         -0.9697   -3.6300    1.2371 H         1 ATP         0.1135
     42 HN62       -6.4060   -2.5723   -1.2840 H         1 ATP         0.3588
     43 H2         -4.8409    1.4176    0.1757 H         1 ATP         0.0302
     44 H44        -6.0768   -0.2826   -0.7263 H         1 ATP         0.4215
@<TRIPOS>BOND
     1    1    2 2
     2    1    3 1
     3    1    4 1
     4    1    8 1
     5    4   32 1
     6    5    6 2
     7    5    7 1
     8    5    8 1
     9    5   12 1
    10    9   10 2
    11    9   11 1
    12    9   12 1
    13    9   13 1
    14   13   14 1
    15   14   15 1
    16   14   33 1
    17   14   34 1
    18   15   16 1
    19   15   17 1
    20   15   35 1
    21   16   21 1
    22   17   18 1
    23   17   19 1
    24   17   36 1
    25   18   37 1
    26   19   20 1
    27   19   21 1
    28   19   38 1
    29   20   39 1
    30   21   22 1
    31   21   40 1
    32   22   23 ar
    33   22   31 ar
    34   23   24 ar
    35   23   41 1
    36   24   25 ar
    37   25   26 ar
    38   25   31 ar
    39   26   27 2
    40   26   28 ar
    41   27   42 1
    42   28   29 ar
    43   28   44 1
    44   29   30 ar
    45   29   43 1
    46   30   31 ar
@<TRIPOS>SUBSTRUCTURE
     1 ATP         1 GROUP 0 A     ****
@<TRIPOS>MOLECULE
[[[3,4-dihydroxy-5-(6-imino-1~{H}-purin-9-yl)tetrahydrofuran-2-yl]methoxy-oxido-phosphoryl]oxy-oxido-phosphoryl] hydrogen phosphate
   44    46     1     0     0
SMALL
USER_CHARGES

@<TRIPOS>ATOM
      1 PG         -3.7004    5.2093   -4.2329 P.3       1 ATP         1.5257
      2 O1G        -2.8392    6.3296   -4.7720 O.co2     1 ATP        -0.8737
      3 O2G        -5.1732    5.4224   -3.9624 O.co2     1 ATP        -0.8737
      4 O3G        -3.5352    3.9117   -5.2100 O.3       1 ATP        -0.7971
      5 PB         -2.7606    5.2870   -1.4303 P.3       1 ATP         1.6824
      6 O1B        -1.7665    6.4166   -1.5830 O.co2     1 ATP        -0.8925
      7 O2B        -4.1048    5.5099   -0.7739 O.co2     1 ATP        -0.8925
      8 O3B        -2.9993    4.5988   -2.8915 O.3       1 ATP        -0.8047
      9 PA         -2.5569    2.5166   -0.4115 P.3       1 ATP         1.5908
     10 O1A        -2.7401    1.8113   -1.7379 O.co2     1 ATP        -0.8932
     11 O2A        -3.6908    2.5917    0.5877 O.co2     1 ATP        -0.8932
     12 O3A        -2.0190    4.0335   -0.6930 O.3       1 ATP        -0.8088
     13 O5'        -1.2434    1.9104    0.3515 O.3       1 ATP        -0.5646
     14 C5'        -0.8811    2.4285    1.6206 C.3       1 ATP         0.2204
     15 C4'        -0.1994    1.3333    2.4288 C.3       1 ATP         0.0965
     16 O4'        -1.1285    0.2356    2.5840 O.3       1 ATP        -0.3907
     17 C3'         1.0324    0.7610    1.7344 C.3       1 ATP         0.0763
     18 O3'         1.9175    0.2377    2.7247 O.3       1 ATP        -0.5884
     19 C2'         0.4468   -0.3802    0.9263 C.3       1 ATP         0.0784
     20 O2'         1.3993   -1.3703    0.5961 O.3       1 ATP        -0.6085
     21 C1'        -0.6159   -0.9100    1.8769 C.3       1 ATP         0.2186
     22 N9         -1.7127   -1.6108    1.2130 N.pl3     1 ATP        -0.1699
     23 C8         -2.8662   -1.0361    0.7388 C.ar      1 ATP         0.4438
     24 N7         -3.6774   -1.9166    0.1867 N.2       1 ATP        -0.6280
     25 C5         -3.0159   -3.1045    0.3122 C.ar      1 ATP         0.2109
     26 C6         -3.4377   -4.4169   -0.1199 C.ar      1 ATP         0.6180
     27 N6         -4.5720   -4.5691   -0.7080 N.2       1 ATP        -0.8319
     28 N1         -2.4600   -5.3463    0.2071 N.pl3     1 ATP        -0.8664
     29 C2         -1.2595   -5.0554    0.8515 C.ar      1 ATP         0.5952
     30 N3         -0.8555   -3.8803    1.2516 N.2       1 ATP        -0.5599
     31 C4         -1.7946   -2.9457    0.9448 C.ar      1 ATP         0.0076
     32 HOG3       -4.0353    3.0965   -4.9921 H         1 ATP         0.4101
     33 H5'1       -0.2033    3.2760    1.4769 H         1 ATP         0.0364
     34 H5'2       -1.7841    2.7762    2.1323 H         1 ATP         0.0364
     35 H4'         0.0403    1.7078    3.4343 H         1 ATP         0.0945
     36 H3'         1.5907    1.4859    1.1353 H         1 ATP         0.0703
     37 HO3'        2.1521    0.9800    3.3017 H         1 ATP         0.4099
     38 H2'        -0.0017    0.0018    0.0005 H         1 ATP         0.0676
     39 HO2'        2.0953   -0.9375    0.0709 H         1 ATP         0.4291
     40 H1'        -0.1998   -1.6319    2.6178 H         1 ATP         0.0950
     41 H8         -3.0558    0.0252    0.8256 H         1 ATP         0.1135
     42 HN62       -4.7047   -5.5592   -0.9421 H         1 ATP         0.3588
     43 H2         -0.6372   -5.9505    1.0077 H         1 ATP         0.0302
     44 H44        -2.6338   -6.3155   -0.0469 H         1 ATP         0.4215
@<TRIPOS>BOND
     1    1    2 2
     2    1    3 1
     3    1    4 1
     4    1    8 1
     5    4   32 1
     6    5    6 2
     7    5    7 1
     8    5    8 1
     9    5   12 1
    10    9   10 2
    11    9   11 1
    12    9   12 1
    13    9   13 1
    14   13   14 1
    15   14   15 1
    16   14   33 1
    17   14   34 1
    18   15   16 1
    19   15   17 1
    20   15   35 1
    21   16   21 1
    22   17   18 1
    23   17   19 1
    24   17   36 1
    25   18   37 1
    26   19   20 1
    27   19   21 1
    28   19   38 1
    29   20   39 1
    30   21   22 1
    31   21   40 1
    32   22   23 ar
    33   22   31 ar
    34   23   24 ar
    35   23   41 1
    36   24   25 ar
    37   25   26 ar
    38   25   31 ar
    39   26   27 2
    40   26   28 ar
    41   27   42 1
    42   28   29 ar
    43   28   44 1
    44   29   30 ar
    45   29   43 1
    46   30   31 ar
@<TRIPOS>SUBSTRUCTURE
     1 ATP         1 GROUP 0 A     ****
@<TRIPOS>MOLECULE
[[[3,4-dihydroxy-5-(6-imino-1~{H}-purin-9-yl)tetrahydrofuran-2-yl]methoxy-oxido-phosphoryl]oxy-oxido-phosphoryl] hydrogen phosphate
   44    46     1     0     0
SMALL
USER_CHARGES

@<TRIPOS>ATOM
      1 PG          9.2600   -2.5095   -1.5329 P.3       1 ATP         1.5257
      2 O1G        10.5478   -1.7197   -1.6065 O.co2     1 ATP        -0.8737
      3 O2G         8.7953   -3.3491   -2.7020 O.co2     1 ATP        -0.8737
      4 O3G         9.3063   -3.4543   -0.2021 O.3       1 ATP        -0.7971
      5 PB          7.9428   -0.5068    0.1984 P.3       1 ATP         1.6824
      6 O1B         7.8886   -1.3375    1.4612 O.co2     1 ATP        -0.8925
      7 O2B         8.9588    0.6012    0.0327 O.co2     1 ATP        -0.8925
      8 O3B         8.0494   -1.5110   -1.0845 O.3       1 ATP        -0.8047
      9 PA          5.8979    0.9309   -1.3848 P.3       1 ATP         1.5908
     10 O1A         5.9209    0.0232   -2.5956 O.co2     1 ATP        -0.8932
     11 O2A         6.5856    2.2784   -1.4151 O.co2     1 ATP        -0.8932
     12 O3A         6.4552    0.0987   -0.0938 O.3       1 ATP        -0.8088
     13 O5'         4.3516    1.1575   -0.9026 O.3       1 ATP        -0.5646
     14 C5'         4.0922    1.9801    0.2227 C.3       1 ATP         0.2204
     15 C4'         2.5944    2.0310    0.4653 C.3       1 ATP         0.0965
     16 O4'         1.9327    2.5740   -0.6889 O.3       1 ATP        -0.3907
     17 C3'         1.9685    0.6634    0.6767 C.3       1 ATP         0.0763
     18 O3'         2.1425    0.1975    1.9977 O.3       1 ATP        -0.5884
     19 C2'         0.5176    0.9128    0.3099 C.3       1 ATP         0.0784
     20 O2'        -0.2103    1.4454    1.4152 O.3       1 ATP        -0.6085
     21 C1'         0.6219    1.9765   -0.7844 C.3       1 ATP         0.2186
     22 N9          0.4237    1.4496   -2.1357 N.pl3     1 ATP        -0.1699
     23 C8          1.4069    0.9710   -2.9662 C.ar      1 ATP         0.4438
     24 N7          0.9316    0.5623   -4.1260 N.2       1 ATP        -0.6280
     25 C5         -0.4120    0.7884   -4.0344 C.ar      1 ATP         0.2109
     26 C6         -1.4353    0.5283   -5.0204 C.ar      1 ATP         0.6180
     27 N6         -1.1199    0.0176   -6.1586 N.2       1 ATP        -0.8319
     28 N1         -2.6704    0.9095   -4.5147 N.pl3     1 ATP        -0.8664
     29 C2         -2.8863    1.4571   -3.2520 C.ar      1 ATP         0.5952
     30 N3         -1.9805    1.7017   -2.3442 N.2       1 ATP        -0.5599
     31 C4         -0.7561    1.3381   -2.8112 C.ar      1 ATP         0.0076
     32 HOG3        8.5367   -4.0323   -0.0128 H         1 ATP         0.4101
     33 H5'1        4.6069    1.5618    1.0936 H         1 ATP         0.0364
     34 H5'2        4.4824    2.9837    0.0254 H         1 ATP         0.0364
     35 H4'         2.3752    2.7029    1.3156 H         1 ATP         0.0945
     36 H3'         2.4336   -0.1217   -0.0015 H         1 ATP         0.0703
     37 HO3'        3.0987    0.1465    2.1461 H         1 ATP         0.4099
     38 H2'         0.0316    0.0155   -0.0339 H         1 ATP         0.0676
     39 HO2'       -1.1270    1.5823    1.1180 H         1 ATP         0.4291
     40 H1'        -0.1474    2.7798   -0.6651 H         1 ATP         0.0950
     41 H8          2.4466    0.9468   -2.6694 H         1 ATP         0.1135
     42 HN62       -1.9661   -0.0965   -6.7275 H         1 ATP         0.3588
     43 H2         -3.9481    1.6825   -3.0660 H         1 ATP         0.0302
     44 H44        -3.4814    0.7753   -5.1133 H         1 ATP         0.4215
@<TRIPOS>BOND
     1    1    2 2
     2    1    3 1
     3    1    4 1
     4    1    8 1
     5    4   32 1
     6    5    6 2
     7    5    7 1
     8    5    8 1
     9    5   12 1
    10    9   10 2
    11    9   11 1
    12    9   12 1
    13    9   13 1
    14   13   14 1
    15   14   15 1
    16   14   33 1
    17   14   34 1
    18   15   16 1
    19   15   17 1
    20   15   35 1
    21   16   21 1
    22   17   18 1
    23   17   19 1
    24   17   36 1
    25   18   37 1
    26   19   20 1
    27   19   21 1
    28   19   38 1
    29   20   39 1
    30   21   22 1
    31   21   40 1
    32   22   23 ar
    33   22   31 ar
    34   23   24 ar
    35   23   41 1
    36   24   25 ar
    37   25   26 ar
    38   25   31 ar
    39   26   27 2
    40   26   28 ar
    41   27   42 1
    42   28   29 ar
    43   28   44 1
    44   29   30 ar
    45   29   43 1
    46   30   31 ar
@<TRIPOS>SUBSTRUCTURE
     1 ATP         1 GROUP 0 A     ****
@<TRIPOS>MOLECULE
[[[3,4-dihydroxy-5-(6-imino-1~{H}-purin-9-yl)tetrahydrofuran-2-yl]methoxy-oxido-phosphoryl]oxy-oxido-phosphoryl] hydrogen phosphate
   44    46     1     0     0
SMALL
USER_CHARGES

@<TRIPOS>ATOM
      1 PG          7.6816   -3.9392    0.8640 P.3       1 ATP         1.5257
      2 O1G         9.1176   -3.6888    0.4605 O.co2     1 ATP        -0.8737
      3 O2G         6.8863   -5.0679    0.2465 O.co2     1 ATP        -0.8737
      4 O3G         7.6179   -4.0884    2.4887 O.3       1 ATP        -0.7971
      5 PB          6.4443   -1.7088   -0.6319 P.3       1 ATP         1.6824
      6 O1B         7.7104   -1.1479   -1.2399 O.co2     1 ATP        -0.8925
      7 O2B         5.4775   -2.5309   -1.4548 O.co2     1 ATP        -0.8925
      8 O3B         6.8369   -2.5512    0.7104 O.3       1 ATP        -0.8047
      9 PA          6.1203    0.6016    1.1881 P.3       1 ATP         1.5908
     10 O1A         7.1690    1.4910    0.5562 O.co2     1 ATP        -0.8932
     11 O2A         6.4034   -0.1283    2.4831 O.co2     1 ATP        -0.8932
     12 O3A         5.6222   -0.4917    0.0807 O.3       1 ATP        -0.8088
     13 O5'         4.7294    1.4427    1.3696 O.3       1 ATP        -0.5646
     14 C5'         4.0922    1.9801    0.2227 C.3       1 ATP         0.2204
     15 C4'         2.5944    2.0310    0.4653 C.3       1 ATP         0.0965
     16 O4'         1.9327    2.5740   -0.6889 O.3       1 ATP        -0.3907
     17 C3'         1.9685    0.6634    0.6767 C.3       1 ATP         0.0763
     18 O3'         2.1425    0.1975    1.9977 O.3       1 ATP        -0.5884
     19 C2'         0.5176    0.9128    0.3099 C.3       1 ATP         0.0784
     20 O2'        -0.2103    1.4454    1.4152 O.3       1 ATP        -0.6085
     21 C1'         0.6219    1.9765   -0.7844 C.3       1 ATP         0.2186
     22 N9          0.4237    1.4496   -2.1357 N.pl3     1 ATP        -0.1699
     23 C8          1.4069    0.9710   -2.9662 C.ar      1 ATP         0.4438
     24 N7          0.9316    0.5623   -4.1260 N.2       1 ATP        -0.6280
     25 C5         -0.4120    0.7884   -4.0344 C.ar      1 ATP         0.2109
     26 C6         -1.4353    0.5283   -5.0204 C.ar      1 ATP         0.6180
     27 N6         -1.1199    0.0176   -6.1586 N.2       1 ATP        -0.8319
     28 N1         -2.6704    0.9095   -4.5147 N.pl3     1 ATP        -0.8664
     29 C2         -2.8863    1.4571   -3.2520 C.ar      1 ATP         0.5952
     30 N3         -1.9805    1.7017   -2.3442 N.2       1 ATP        -0.5599
     31 C4         -0.7561    1.3381   -2.8112 C.ar      1 ATP         0.0076
     32 HOG3        6.7471   -4.2553    2.9084 H         1 ATP         0.4101
     33 H5'1        4.4843    2.9854    0.0380 H         1 ATP         0.0364
     34 H5'2        4.3191    1.3446   -0.6392 H         1 ATP         0.0364
     35 H4'         2.3752    2.7029    1.3156 H         1 ATP         0.0945
     36 H3'         2.4336   -0.1217   -0.0015 H         1 ATP         0.0703
     37 HO3'        3.0987    0.1465    2.1461 H         1 ATP         0.4099
     38 H2'         0.0316    0.0155   -0.0339 H         1 ATP         0.0676
     39 HO2'       -0.1608    0.7921    2.1351 H         1 ATP         0.4291
     40 H1'        -0.1474    2.7798   -0.6651 H         1 ATP         0.0950
     41 H8          2.4466    0.9468   -2.6694 H         1 ATP         0.1135
     42 HN62       -1.9661   -0.0965   -6.7275 H         1 ATP         0.3588
     43 H2         -3.9481    1.6825   -3.0660 H         1 ATP         0.0302
     44 H44        -3.4814    0.7753   -5.1133 H         1 ATP         0.4215
@<TRIPOS>BOND
     1    1    2 2
     2    1    3 1
     3    1    4 1
     4    1    8 1
     5    4   32 1
     6    5    6 2
     7    5    7 1
     8    5    8 1
     9    5   12 1
    10    9   10 2
    11    9   11 1
    12    9   12 1
    13    9   13 1
    14   13   14 1
    15   14   15 1
    16   14   33 1
    17   14   34 1
    18   15   16 1
    19   15   17 1
    20   15   35 1
    21   16   21 1
    22   17   18 1
    23   17   19 1
    24   17   36 1
    25   18   37 1
    26   19   20 1
    27   19   21 1
    28   19   38 1
    29   20   39 1
    30   21   22 1
    31   21   40 1
    32   22   23 ar
    33   22   31 ar
    34   23   24 ar
    35   23   41 1
    36   24   25 ar
    37   25   26 ar
    38   25   31 ar
    39   26   27 2
    40   26   28 ar
    41   27   42 1
    42   28   29 ar
    43   28   44 1
    44   29   30 ar
    45   29   43 1
    46   30   31 ar
@<TRIPOS>SUBSTRUCTURE
     1 ATP         1 GROUP 0 A     ****
@<TRIPOS>MOLECULE
[[[3,4-dihydroxy-5-(6-imino-1~{H}-purin-9-yl)tetrahydrofuran-2-yl]methoxy-oxido-phosphoryl]oxy-oxido-phosphoryl] hydrogen phosphate
   44    46     1     0     0
SMALL
USER_CHARGES

@<TRIPOS>ATOM
      1 PG          1.4514    6.8977    1.0429 P.3       1 ATP         1.5257
      2 O1G         1.5893    5.5875    1.7858 O.co2     1 ATP        -0.8737
      3 O2G         1.3717    8.2103    1.7902 O.co2     1 ATP        -0.8737
      4 O3G         2.6539    6.9995   -0.0569 O.3       1 ATP        -0.7971
      5 PB         -1.4096    6.6634    0.3334 P.3       1 ATP         1.6824
      6 O1B        -1.8112    7.7776    1.2740 O.co2     1 ATP        -0.8925
      7 O2B        -2.1450    6.4337   -0.9681 O.co2     1 ATP        -0.8925
      8 O3B         0.1865    6.7958    0.0165 O.3       1 ATP        -0.8047
      9 PA         -2.5926    4.4187    1.8556 P.3       1 ATP         1.5908
     10 O1A        -3.5065    3.9076    0.7629 O.co2     1 ATP        -0.8932
     11 O2A        -3.1430    5.2317    3.0070 O.co2     1 ATP        -0.8932
     12 O3A        -1.3728    5.2613    1.1687 O.3       1 ATP        -0.8088
     13 O5'        -1.7336    3.1724    2.4750 O.3       1 ATP        -0.5646
     14 C5'        -0.8811    2.4285    1.6206 C.3       1 ATP         0.2204
     15 C4'        -0.1994    1.3333    2.4288 C.3       1 ATP         0.0965
     16 O4'        -1.1285    0.2356    2.5840 O.3       1 ATP        -0.3907
     17 C3'         1.0324    0.7610    1.7344 C.3       1 ATP         0.0763
     18 O3'         1.9175    0.2377    2.7247 O.3       1 ATP        -0.5884
     19 C2'         0.4468   -0.3802    0.9263 C.3       1 ATP         0.0784
     20 O2'         1.3993   -1.3703    0.5961 O.3       1 ATP        -0.6085
     21 C1'        -0.6159   -0.9100    1.8769 C.3       1 ATP         0.2186
     22 N9         -1.7127   -1.6108    1.2130 N.pl3     1 ATP        -0.1699
     23 C8         -1.6202   -2.3321    0.0482 C.ar      1 ATP         0.4438
     24 N7         -2.7754   -2.8539   -0.3142 N.2       1 ATP        -0.6280
     25 C5         -3.6439   -2.4502    0.6592 C.ar      1 ATP         0.2109
     26 C6         -5.0563   -2.7308    0.7745 C.ar      1 ATP         0.6180
     27 N6         -5.6468   -3.4480   -0.1158 N.2       1 ATP        -0.8319
     28 N1         -5.5549   -2.1241    1.9191 N.pl3     1 ATP        -0.8664
     29 C2         -4.8068   -1.3637    2.8153 C.ar      1 ATP         0.5952
     30 N3         -3.5318   -1.0957    2.7338 N.2       1 ATP        -0.5599
     31 C4         -3.0130   -1.6778    1.6196 C.ar      1 ATP         0.0076
     32 HOG3        2.7019    7.7987   -0.6235 H         1 ATP         0.4101
     33 H5'1       -1.4800    1.9927    0.8146 H         1 ATP         0.0364
     34 H5'2       -0.1367    3.1040    1.1872 H         1 ATP         0.0364
     35 H4'         0.0403    1.7078    3.4343 H         1 ATP         0.0945
     36 H3'         1.5907    1.4859    1.1353 H         1 ATP         0.0703
     37 HO3'        2.6839   -0.1150    2.2479 H         1 ATP         0.4099
     38 H2'        -0.0017    0.0018    0.0005 H         1 ATP         0.0676
     39 HO2'        2.0953   -0.9375    0.0709 H         1 ATP         0.4291
     40 H1'        -0.1998   -1.6319    2.6178 H         1 ATP         0.0950
     41 H8         -0.6865   -2.4395   -0.4871 H         1 ATP         0.1135
     42 HN62       -6.6394   -3.5426    0.1257 H         1 ATP         0.3588
     43 H2         -5.4125   -0.9811    3.6517 H         1 ATP         0.0302
     44 H44        -6.5442   -2.2475    2.1195 H         1 ATP         0.4215
@<TRIPOS>BOND
     1    1    2 2
     2    1    3 1
     3    1    4 1
     4    1    8 1
     5    4   32 1
     6    5    6 2
     7    5    7 1
     8    5    8 1
     9    5   12 1
    10    9   10 2
    11    9   11 1
    12    9   12 1
    13    9   13 1
    14   13   14 1
    15   14   15 1
    16   14   33 1
    17   14   34 1
    18   15   16 1
    19   15   17 1
    20   15   35 1
    21   16   21 1
    22   17   18 1
    23   17   19 1
    24   17   36 1
    25   18   37 1
    26   19   20 1
    27   19   21 1
    28   19   38 1
    29   20   39 1
    30   21   22 1
    31   21   40 1
    32   22   23 ar
    33   22   31 ar
    34   23   24 ar
    35   23   41 1
    36   24   25 ar
    37   25   26 ar
    38   25   31 ar
    39   26   27 2
    40   26   28 ar
    41   27   42 1
    42   28   29 ar
    43   28   44 1
    44   29   30 ar
    45   29   43 1
    46   30   31 ar
@<TRIPOS>SUBSTRUCTURE
     1 ATP         1 GROUP 0 A     ****
@<TRIPOS>MOLECULE
[[[3,4-dihydroxy-5-(6-imino-1~{H}-purin-9-yl)tetrahydrofuran-2-yl]methoxy-oxido-phosphoryl]oxy-oxido-phosphoryl] hydrogen phosphate
   44    46     1     0     0
SMALL
USER_CHARGES

@<TRIPOS>ATOM
      1 PG          6.2078    4.8998    6.1669 P.3       1 ATP         1.5257
      2 O1G         7.6404    4.4930    6.4310 O.co2     1 ATP        -0.8737
      3 O2G         5.1385    4.7073    7.2192 O.co2     1 ATP        -0.8737
      4 O3G         6.1915    6.4616    5.6909 O.3       1 ATP        -0.7971
      5 PB          5.4600    2.6391    4.4138 P.3       1 ATP         1.6824
      6 O1B         6.7910    1.9211    4.4331 O.co2     1 ATP        -0.8925
      7 O2B         4.2867    2.1359    5.2247 O.co2     1 ATP        -0.8925
      8 O3B         5.7086    4.2121    4.7735 O.3       1 ATP        -0.8047
      9 PA          5.7823    3.4683    1.5918 P.3       1 ATP         1.5908
     10 O1A         6.9788    2.5984    1.2726 O.co2     1 ATP        -0.8932
     11 O2A         5.9489    4.9514    1.8416 O.co2     1 ATP        -0.8932
     12 O3A         4.9854    2.8199    2.8624 O.3       1 ATP        -0.8088
     13 O5'         4.6405    3.2699    0.4378 O.3       1 ATP        -0.5646
     14 C5'         4.0922    1.9801    0.2227 C.3       1 ATP         0.2204
     15 C4'         2.5944    2.0310    0.4653 C.3       1 ATP         0.0965
     16 O4'         1.9327    2.5740   -0.6889 O.3       1 ATP        -0.3907
     17 C3'         1.9685    0.6634    0.6767 C.3       1 ATP         0.0763
     18 O3'         2.1425    0.1975    1.9977 O.3       1 ATP        -0.5884
     19 C2'         0.5176    0.9128    0.3099 C.3       1 ATP         0.0784
     20 O2'        -0.2103    1.4454    1.4152 O.3       1 ATP        -0.6085
     21 C1'         0.6219    1.9765   -0.7844 C.3       1 ATP         0.2186
     22 N9          0.4237    1.4496   -2.1357 N.pl3     1 ATP        -0.1699
     23 C8          1.4069    0.9710   -2.9662 C.ar      1 ATP         0.4438
     24 N7          0.9316    0.5623   -4.1260 N.2       1 ATP        -0.6280
     25 C5         -0.4120    0.7884   -4.0344 C.ar      1 ATP         0.2109
     26 C6         -1.4353    0.5283   -5.0204 C.ar      1 ATP         0.6180
     27 N6         -1.1199    0.0176   -6.1586 N.2       1 ATP        -0.8319
     28 N1         -2.6704    0.9095   -4.5147 N.pl3     1 ATP        -0.8664
     29 C2         -2.8863    1.4571   -3.2520 C.ar      1 ATP         0.5952
     30 N3         -1.9805    1.7017   -2.3442 N.2       1 ATP        -0.5599
     31 C4         -0.7561    1.3381   -2.8112 C.ar      1 ATP         0.0076
     32 HOG3        5.3279    6.8765    5.4802 H         1 ATP         0.4101
     33 H5'1        4.3028    1.6728   -0.8066 H         1 ATP         0.0364
     34 H5'2        4.5677    1.2738    0.9106 H         1 ATP         0.0364
     35 H4'         2.3752    2.7029    1.3156 H         1 ATP         0.0945
     36 H3'         2.4336   -0.1217   -0.0015 H         1 ATP         0.0703
     37 HO3'        1.7160   -0.6716    2.0397 H         1 ATP         0.4099
     38 H2'         0.0316    0.0155   -0.0339 H         1 ATP         0.0676
     39 HO2'       -0.1608    0.7921    2.1351 H         1 ATP         0.4291
     40 H1'        -0.1474    2.7798   -0.6651 H         1 ATP         0.0950
     41 H8          2.4466    0.9468   -2.6694 H         1 ATP         0.1135
     42 HN62       -1.9661   -0.0965   -6.7275 H         1 ATP         0.3588
     43 H2         -3.9481    1.6825   -3.0660 H         1 ATP         0.0302
     44 H44        -3.4814    0.7753   -5.1133 H         1 ATP         0.4215
@<TRIPOS>BOND
     1    1    2 2
     2    1    3 1
     3    1    4 1
     4    1    8 1
     5    4   32 1
     6    5    6 2
     7    5    7 1
     8    5    8 1
     9    5   12 1
    10    9   10 2
    11    9   11 1
    12    9   12 1
    13    9   13 1
    14   13   14 1
    15   14   15 1
    16   14   33 1
    17   14   34 1
    18   15   16 1
    19   15   17 1
    20   15   35 1
    21   16   21 1
    22   17   18 1
    23   17   19 1
    24   17   36 1
    25   18   37 1
    26   19   20 1
    27   19   21 1
    28   19   38 1
    29   20   39 1
    30   21   22 1
    31   21   40 1
    32   22   23 ar
    33   22   31 ar
    34   23   24 ar
    35   23   41 1
    36   24   25 ar
    37   25   26 ar
    38   25   31 ar
    39   26   27 2
    40   26   28 ar
    41   27   42 1
    42   28   29 ar
    43   28   44 1
    44   29   30 ar
    45   29   43 1
    46   30   31 ar
@<TRIPOS>SUBSTRUCTURE
     1 ATP         1 GROUP 0 A     ****
@<TRIPOS>MOLECULE
[[[3,4-dihydroxy-5-(6-imino-1~{H}-purin-9-yl)tetrahydrofuran-2-yl]methoxy-oxido-phosphoryl]oxy-oxido-phosphoryl] hydrogen phosphate
   44    46     1     0     0
SMALL
USER_CHARGES

@<TRIPOS>ATOM
      1 PG         -2.0305    8.6045   -0.5266 P.3       1 ATP         1.5257
      2 O1G        -2.3562    8.5012   -1.9999 O.co2     1 ATP        -0.8737
      3 O2G        -0.7461    9.2514   -0.0580 O.co2     1 ATP        -0.8737
      4 O3G        -3.2823    9.3285    0.2317 O.3       1 ATP        -0.7971
      5 PB         -3.3926    6.0601    0.1172 P.3       1 ATP         1.6824
      6 O1B        -4.5549    6.6441    0.8888 O.co2     1 ATP        -0.8925
      7 O2B        -3.5650    5.5606   -1.2999 O.co2     1 ATP        -0.8925
      8 O3B        -2.1550    7.1245    0.1500 O.3       1 ATP        -0.8047
      9 PA         -3.3161    3.4234    1.4576 P.3       1 ATP         1.5908
     10 O1A        -3.5064    2.5741    0.2195 O.co2     1 ATP        -0.8932
     11 O2A        -4.4616    3.6587    2.4178 O.co2     1 ATP        -0.8932
     12 O3A        -2.7135    4.8751    1.0113 O.3       1 ATP        -0.8088
     13 O5'        -2.0401    2.8620    2.3128 O.3       1 ATP        -0.5646
     14 C5'        -0.8811    2.4285    1.6206 C.3       1 ATP         0.2204
     15 C4'        -0.1994    1.3333    2.4288 C.3       1 ATP         0.0965
     16 O4'        -1.1285    0.2356    2.5840 O.3       1 ATP        -0.3907
     17 C3'         1.0324    0.7610    1.7344 C.3       1 ATP         0.0763
     18 O3'         1.9175    0.2377    2.7247 O.3       1 ATP        -0.5884
     19 C2'         0.4468   -0.3802    0.9263 C.3       1 ATP         0.0784
     20 O2'         1.3993   -1.3703    0.5961 O.3       1 ATP        -0.6085
     21 C1'        -0.6159   -0.9100    1.8769 C.3       1 ATP         0.2186
     22 N9         -1.7127   -1.6108    1.2130 N.pl3     1 ATP        -0.1699
     23 C8         -1.5982   -2.7455    0.4481 C.ar      1 ATP         0.4438
     24 N7         -2.7593   -3.1533   -0.0249 N.2       1 ATP        -0.6280
     25 C5         -3.6547   -2.2420    0.4573 C.ar      1 ATP         0.2109
     26 C6         -5.0842   -2.1942    0.2543 C.ar      1 ATP         0.6180
     27 N6         -5.6648   -3.0919   -0.4618 N.2       1 ATP        -0.8319
     28 N1         -5.6087   -1.0978    0.9248 N.pl3     1 ATP        -0.8664
     29 C2         -4.8689   -0.1873    1.6760 C.ar      1 ATP         0.5952
     30 N3         -3.5787   -0.2081    1.8745 N.2       1 ATP        -0.5599
     31 C4         -3.0344   -1.2737    1.2284 C.ar      1 ATP         0.0076
     32 HOG3       -3.2227    9.4695    1.2006 H         1 ATP         0.4101
     33 H5'1       -1.1767    2.0502    0.6368 H         1 ATP         0.0364
     34 H5'2       -0.2080    3.2814    1.4876 H         1 ATP         0.0364
     35 H4'         0.0403    1.7078    3.4343 H         1 ATP         0.0945
     36 H3'         1.5907    1.4859    1.1353 H         1 ATP         0.0703
     37 HO3'        2.1521    0.9800    3.3017 H         1 ATP         0.4099
     38 H2'        -0.0017    0.0018    0.0005 H         1 ATP         0.0676
     39 HO2'        1.7495   -1.7243    1.4324 H         1 ATP         0.4291
     40 H1'        -0.1998   -1.6319    2.6178 H         1 ATP         0.0950
     41 H8         -0.6448   -3.2254    0.2735 H         1 ATP         0.1135
     42 HN62       -6.6723   -2.9015   -0.4966 H         1 ATP         0.3588
     43 H2         -5.4961    0.6026    2.1183 H         1 ATP         0.0302
     44 H44        -6.6130   -0.9504    0.8642 H         1 ATP         0.4215
@<TRIPOS>BOND
     1    1    2 2
     2    1    3 1
     3    1    4 1
     4    1    8 1
     5    4   32 1
     6    5    6 2
     7    5    7 1
     8    5    8 1
     9    5   12 1
    10    9   10 2
    11    9   11 1
    12    9   12 1
    13    9   13 1
    14   13   14 1
    15   14   15 1
    16   14   33 1
    17   14   34 1
    18   15   16 1
    19   15   17 1
    20   15   35 1
    21   16   21 1
    22   17   18 1
    23   17   19 1
    24   17   36 1
    25   18   37 1
    26   19   20 1
    27   19   21 1
    28   19   38 1
    29   20   39 1
    30   21   22 1
    31   21   40 1
    32   22   23 ar
    33   22   31 ar
    34   23   24 ar
    35   23   41 1
    36   24   25 ar
    37   25   26 ar
    38   25   31 ar
    39   26   27 2
    40   26   28 ar
    41   27   42 1
    42   28   29 ar
    43   28   44 1
    44   29   30 ar
    45   29   43 1
    46   30   31 ar
@<TRIPOS>SUBSTRUCTURE
     1 ATP         1 GROUP 0 A     ****
@<TRIPOS>MOLECULE
[[[3,4-dihydroxy-5-(6-imino-1~{H}-purin-9-yl)tetrahydrofuran-2-yl]methoxy-oxido-phosphoryl]oxy-oxido-phosphoryl] hydrogen phosphate
   44    46     1     0     0
SMALL
USER_CHARGES

@<TRIPOS>ATOM
      1 PG         -3.3210    8.9183    1.1073 P.3       1 ATP         1.5257
      2 O1G        -3.9758    9.3015    2.4156 O.co2     1 ATP        -0.8737
      3 O2G        -4.0601    9.0652   -0.2042 O.co2     1 ATP        -0.8737
      4 O3G        -1.8957    9.7062    0.9902 O.3       1 ATP        -0.7971
      5 PB         -3.5595    5.9834    1.3777 P.3       1 ATP         1.6824
      6 O1B        -4.2449    5.9609    2.7258 O.co2     1 ATP        -0.8925
      7 O2B        -4.3309    5.7263    0.1024 O.co2     1 ATP        -0.8925
      8 O3B        -2.7509    7.3935    1.2251 O.3       1 ATP        -0.8047
      9 PA         -1.0308    4.9148    2.4816 P.3       1 ATP         1.5908
     10 O1A        -1.5654    4.5278    3.8435 O.co2     1 ATP        -0.8932
     11 O2A        -0.1965    6.1647    2.3047 O.co2     1 ATP        -0.8932
     12 O3A        -2.2766    4.9752    1.4261 O.3       1 ATP        -0.8088
     13 O5'        -0.2062    3.6557    1.8417 O.3       1 ATP        -0.5646
     14 C5'        -0.8811    2.4285    1.6206 C.3       1 ATP         0.2204
     15 C4'        -0.1994    1.3333    2.4288 C.3       1 ATP         0.0965
     16 O4'        -1.1285    0.2356    2.5840 O.3       1 ATP        -0.3907
     17 C3'         1.0324    0.7610    1.7344 C.3       1 ATP         0.0763
     18 O3'         1.9175    0.2377    2.7247 O.3       1 ATP        -0.5884
     19 C2'         0.4468   -0.3802    0.9263 C.3       1 ATP         0.0784
     20 O2'         1.3993   -1.3703    0.5961 O.3       1 ATP        -0.6085
     21 C1'        -0.6159   -0.9100    1.8769 C.3       1 ATP         0.2186
     22 N9         -1.7127   -1.6108    1.2130 N.pl3     1 ATP        -0.1699
     23 C8         -2.0868   -2.9137    1.4327 C.ar      1 ATP         0.4438
     24 N7         -3.1125   -3.2756    0.6878 N.2       1 ATP        -0.6280
     25 C5         -3.4079   -2.1580   -0.0391 C.ar      1 ATP         0.2109
     26 C6         -4.4483   -1.9775   -1.0249 C.ar      1 ATP         0.6180
     27 N6         -5.2418   -2.9492   -1.3113 N.2       1 ATP        -0.8319
     28 N1         -4.3937   -0.6823   -1.5211 N.pl3     1 ATP        -0.8664
     29 C2         -3.4770    0.2901   -1.1271 C.ar      1 ATP         0.5952
     30 N3         -2.5289    0.1525   -0.2402 N.2       1 ATP        -0.5599
     31 C4         -2.5564   -1.1096    0.2655 C.ar      1 ATP         0.0076
     32 HOG3       -1.3466    9.5615    0.1904 H         1 ATP         0.4101
     33 H5'1       -1.9256    2.5380    1.9293 H         1 ATP         0.0364
     34 H5'2       -0.8474    2.1930    0.5521 H         1 ATP         0.0364
     35 H4'         0.0403    1.7078    3.4343 H         1 ATP         0.0945
     36 H3'         1.5907    1.4859    1.1353 H         1 ATP         0.0703
     37 HO3'        2.6839   -0.1150    2.2479 H         1 ATP         0.4099
     38 H2'        -0.0017    0.0018    0.0005 H         1 ATP         0.0676
     39 HO2'        2.0953   -0.9375    0.0709 H         1 ATP         0.4291
     40 H1'        -0.1998   -1.6319    2.6178 H         1 ATP         0.0950
     41 H8         -1.5740   -3.5449    2.1457 H         1 ATP         0.1135
     42 HN62       -5.9117   -2.6433   -2.0256 H         1 ATP         0.3588
     43 H2         -3.6225    1.2454   -1.6553 H         1 ATP         0.0302
     44 H44        -5.0794   -0.4231   -2.2258 H         1 ATP         0.4215
@<TRIPOS>BOND
     1    1    2 2
     2    1    3 1
     3    1    4 1
     4    1    8 1
     5    4   32 1
     6    5    6 2
     7    5    7 1
     8    5    8 1
     9    5   12 1
    10    9   10 2
    11    9   11 1
    12    9   12 1
    13    9   13 1
    14   13   14 1
    15   14   15 1
    16   14   33 1
    17   14   34 1
    18   15   16 1
    19   15   17 1
    20   15   35 1
    21   16   21 1
    22   17   18 1
    23   17   19 1
    24   17   36 1
    25   18   37 1
    26   19   20 1
    27   19   21 1
    28   19   38 1
    29   20   39 1
    30   21   22 1
    31   21   40 1
    32   22   23 ar
    33   22   31 ar
    34   23   24 ar
    35   23   41 1
    36   24   25 ar
    37   25   26 ar
    38   25   31 ar
    39   26   27 2
    40   26   28 ar
    41   27   42 1
    42   28   29 ar
    43   28   44 1
    44   29   30 ar
    45   29   43 1
    46   30   31 ar
@<TRIPOS>SUBSTRUCTURE
     1 ATP         1 GROUP 0 A     ****
@<TRIPOS>MOLECULE
[[[3,4-dihydroxy-5-(6-imino-1~{H}-purin-9-yl)tetrahydrofuran-2-yl]methoxy-oxido-phosphoryl]oxy-oxido-phosphoryl] hydrogen phosphate
   44    46     1     0     0
SMALL
USER_CHARGES

@<TRIPOS>ATOM
      1 PG         -1.5094    7.9418   -1.7911 P.3       1 ATP         1.5257
      2 O1G        -0.1129    8.4803   -1.5732 O.co2     1 ATP        -0.8737
      3 O2G        -2.7177    8.6733   -1.2501 O.co2     1 ATP        -0.8737
      4 O3G        -1.7262    7.6944   -3.3904 O.3       1 ATP        -0.7971
      5 PB         -2.7606    5.2870   -1.4303 P.3       1 ATP         1.6824
      6 O1B        -3.9283    5.7296   -0.5770 O.co2     1 ATP        -0.8925
      7 O2B        -2.9428    4.9505   -2.8936 O.co2     1 ATP        -0.8925
      8 O3B        -1.5638    6.3889   -1.2918 O.3       1 ATP        -0.8047
      9 PA         -2.5569    2.5166   -0.4115 P.3       1 ATP         1.5908
     10 O1A        -2.7401    1.8113   -1.7379 O.co2     1 ATP        -0.8932
     11 O2A        -3.6908    2.5917    0.5877 O.co2     1 ATP        -0.8932
     12 O3A        -2.0190    4.0335   -0.6930 O.3       1 ATP        -0.8088
     13 O5'        -1.2434    1.9104    0.3515 O.3       1 ATP        -0.5646
     14 C5'        -0.8811    2.4285    1.6206 C.3       1 ATP         0.2204
     15 C4'        -0.1994    1.3333    2.4288 C.3       1 ATP         0.0965
     16 O4'        -1.1285    0.2356    2.5840 O.3       1 ATP        -0.3907
     17 C3'         1.0324    0.7610    1.7344 C.3       1 ATP         0.0763
     18 O3'         1.9175    0.2377    2.7247 O.3       1 ATP        -0.5884
     19 C2'         0.4468   -0.3802    0.9263 C.3       1 ATP         0.0784
     20 O2'         1.3993   -1.3703    0.5961 O.3       1 ATP        -0.6085
     21 C1'        -0.6159   -0.9100    1.8769 C.3       1 ATP         0.2186
     22 N9         -1.7127   -1.6108    1.2130 N.pl3     1 ATP        -0.1699
     23 C8         -2.8662   -1.0361    0.7388 C.ar      1 ATP         0.4438
     24 N7         -3.6774   -1.9166    0.1867 N.2       1 ATP        -0.6280
     25 C5         -3.0159   -3.1045    0.3122 C.ar      1 ATP         0.2109
     26 C6         -3.4377   -4.4169   -0.1199 C.ar      1 ATP         0.6180
     27 N6         -4.5720   -4.5691   -0.7080 N.2       1 ATP        -0.8319
     28 N1         -2.4600   -5.3463    0.2071 N.pl3     1 ATP        -0.8664
     29 C2         -1.2595   -5.0554    0.8515 C.ar      1 ATP         0.5952
     30 N3         -0.8555   -3.8803    1.2516 N.2       1 ATP        -0.5599
     31 C4         -1.7946   -2.9457    0.9448 C.ar      1 ATP         0.0076
     32 HOG3       -2.5899    7.3436   -3.6957 H         1 ATP         0.4101
     33 H5'1       -0.2033    3.2760    1.4769 H         1 ATP         0.0364
     34 H5'2       -1.7841    2.7762    2.1323 H         1 ATP         0.0364
     35 H4'         0.0403    1.7078    3.4343 H         1 ATP         0.0945
     36 H3'         1.5907    1.4859    1.1353 H         1 ATP         0.0703
     37 HO3'        2.6839   -0.1150    2.2479 H         1 ATP         0.4099
     38 H2'        -0.0017    0.0018    0.0005 H         1 ATP         0.0676
     39 HO2'        2.0953   -0.9375    0.0709 H         1 ATP         0.4291
     40 H1'        -0.1998   -1.6319    2.6178 H         1 ATP         0.0950
     41 H8         -3.0558    0.0252    0.8256 H         1 ATP         0.1135
     42 HN62       -4.7047   -5.5592   -0.9421 H         1 ATP         0.3588
     43 H2         -0.6372   -5.9505    1.0077 H         1 ATP         0.0302
     44 H44        -2.6338   -6.3155   -0.0469 H         1 ATP         0.4215
@<TRIPOS>BOND
     1    1    2 2
     2    1    3 1
     3    1    4 1
     4    1    8 1
     5    4   32 1
     6    5    6 2
     7    5    7 1
     8    5    8 1
     9    5   12 1
    10    9   10 2
    11    9   11 1
    12    9   12 1
    13    9   13 1
    14   13   14 1
    15   14   15 1
    16   14   33 1
    17   14   34 1
    18   15   16 1
    19   15   17 1
    20   15   35 1
    21   16   21 1
    22   17   18 1
    23   17   19 1
    24   17   36 1
    25   18   37 1
    26   19   20 1
    27   19   21 1
    28   19   38 1
    29   20   39 1
    30   21   22 1
    31   21   40 1
    32   22   23 ar
    33   22   31 ar
    34   23   24 ar
    35   23   41 1
    36   24   25 ar
    37   25   26 ar
    38   25   31 ar
    39   26   27 2
    40   26   28 ar
    41   27   42 1
    42   28   29 ar
    43   28   44 1
    44   29   30 ar
    45   29   43 1
    46   30   31 ar
@<TRIPOS>SUBSTRUCTURE
     1 ATP         1 GROUP 0 A     ****
@<TRIPOS>MOLECULE
[[[3,4-dihydroxy-5-(6-imino-1~{H}-purin-9-yl)tetrahydrofuran-2-yl]methoxy-oxido-phosphoryl]oxy-oxido-phosphoryl] hydrogen phosphate
   44    46     1     0     0
SMALL
USER_CHARGES

@<TRIPOS>ATOM
      1 PG          9.2870    5.5598    0.9073 P.3       1 ATP         1.5257
      2 O1G         9.7354    5.2801   -0.5098 O.co2     1 ATP        -0.8737
      3 O2G        10.2563    5.4570    2.0638 O.co2     1 ATP        -0.8737
      4 O3G         8.5857    7.0337    0.9481 O.3       1 ATP        -0.7971
      5 PB          6.9948    4.6619    2.5454 P.3       1 ATP         1.6824
      6 O1B         7.7815    4.1748    3.7418 O.co2     1 ATP        -0.8925
      7 O2B         6.2472    5.9762    2.5818 O.co2     1 ATP        -0.8925
      8 O3B         7.9717    4.6516    1.2372 O.3       1 ATP        -0.8047
      9 PA          6.2528    1.9160    1.7305 P.3       1 ATP         1.5908
     10 O1A         6.7152    1.2121    2.9879 O.co2     1 ATP        -0.8932
     11 O2A         7.0781    1.8581    0.4635 O.co2     1 ATP        -0.8932
     12 O3A         5.9626    3.4848    2.0832 O.3       1 ATP        -0.8088
     13 O5'         4.7294    1.4427    1.3696 O.3       1 ATP        -0.5646
     14 C5'         4.0922    1.9801    0.2227 C.3       1 ATP         0.2204
     15 C4'         2.5944    2.0310    0.4653 C.3       1 ATP         0.0965
     16 O4'         1.9327    2.5740   -0.6889 O.3       1 ATP        -0.3907
     17 C3'         1.9685    0.6634    0.6767 C.3       1 ATP         0.0763
     18 O3'         2.1425    0.1975    1.9977 O.3       1 ATP        -0.5884
     19 C2'         0.5176    0.9128    0.3099 C.3       1 ATP         0.0784
     20 O2'        -0.2103    1.4454    1.4152 O.3       1 ATP        -0.6085
     21 C1'         0.6219    1.9765   -0.7844 C.3       1 ATP         0.2186
     22 N9          0.4237    1.4496   -2.1357 N.pl3     1 ATP        -0.1699
     23 C8          1.4069    0.9710   -2.9662 C.ar      1 ATP         0.4438
     24 N7          0.9316    0.5623   -4.1260 N.2       1 ATP        -0.6280
     25 C5         -0.4120    0.7884   -4.0344 C.ar      1 ATP         0.2109
     26 C6         -1.4353    0.5283   -5.0204 C.ar      1 ATP         0.6180
     27 N6         -1.1199    0.0176   -6.1586 N.2       1 ATP        -0.8319
     28 N1         -2.6704    0.9095   -4.5147 N.pl3     1 ATP        -0.8664
     29 C2         -2.8863    1.4571   -3.2520 C.ar      1 ATP         0.5952
     30 N3         -1.9805    1.7017   -2.3442 N.2       1 ATP        -0.5599
     31 C4         -0.7561    1.3381   -2.8112 C.ar      1 ATP         0.0076
     32 HOG3        8.2395    7.3625    1.8050 H         1 ATP         0.4101
     33 H5'1        4.4843    2.9854    0.0380 H         1 ATP         0.0364
     34 H5'2        4.3191    1.3446   -0.6392 H         1 ATP         0.0364
     35 H4'         2.3752    2.7029    1.3156 H         1 ATP         0.0945
     36 H3'         2.4336   -0.1217   -0.0015 H         1 ATP         0.0703
     37 HO3'        3.0987    0.1465    2.1461 H         1 ATP         0.4099
     38 H2'         0.0316    0.0155   -0.0339 H         1 ATP         0.0676
     39 HO2'       -0.1608    0.7921    2.1351 H         1 ATP         0.4291
     40 H1'        -0.1474    2.7798   -0.6651 H         1 ATP         0.0950
     41 H8          2.4466    0.9468   -2.6694 H         1 ATP         0.1135
     42 HN62       -1.9661   -0.0965   -6.7275 H         1 ATP         0.3588
     43 H2         -3.9481    1.6825   -3.0660 H         1 ATP         0.0302
     44 H44        -3.4814    0.7753   -5.1133 H         1 ATP         0.4215
@<TRIPOS>BOND
     1    1    2 2
     2    1    3 1
     3    1    4 1
     4    1    8 1
     5    4   32 1
     6    5    6 2
     7    5    7 1
     8    5    8 1
     9    5   12 1
    10    9   10 2
    11    9   11 1
    12    9   12 1
    13    9   13 1
    14   13   14 1
    15   14   15 1
    16   14   33 1
    17   14   34 1
    18   15   16 1
    19   15   17 1
    20   15   35 1
    21   16   21 1
    22   17   18 1
    23   17   19 1
    24   17   36 1
    25   18   37 1
    26   19   20 1
    27   19   21 1
    28   19   38 1
    29   20   39 1
    30   21   22 1
    31   21   40 1
    32   22   23 ar
    33   22   31 ar
    34   23   24 ar
    35   23   41 1
    36   24   25 ar
    37   25   26 ar
    38   25   31 ar
    39   26   27 2
    40   26   28 ar
    41   27   42 1
    42   28   29 ar
    43   28   44 1
    44   29   30 ar
    45   29   43 1
    46   30   31 ar
@<TRIPOS>SUBSTRUCTURE
     1 ATP         1 GROUP 0 A     ****
@<TRIPOS>MOLECULE
[[[3,4-dihydroxy-5-(6-imino-1~{H}-purin-9-yl)tetrahydrofuran-2-yl]methoxy-oxido-phosphoryl]oxy-oxido-phosphoryl] hydrogen phosphate
   44    46     1     0     0
SMALL
USER_CHARGES

@<TRIPOS>ATOM
      1 PG          8.6498   -1.9846    2.6601 P.3       1 ATP         1.5257
      2 O1G         7.8483   -2.5330    3.8196 O.co2     1 ATP        -0.8737
      3 O2G         9.8916   -1.1545    2.8973 O.co2     1 ATP        -0.8737
      4 O3G         9.0346   -3.2206    1.6650 O.3       1 ATP        -0.7971
      5 PB          7.9428   -0.5068    0.1984 P.3       1 ATP         1.6824
      6 O1B         8.9093    0.6437    0.3703 O.co2     1 ATP        -0.8925
      7 O2B         8.2166   -1.6191   -0.7891 O.co2     1 ATP        -0.8925
      8 O3B         7.6496   -1.1671    1.6626 O.3       1 ATP        -0.8047
      9 PA          5.8979    0.9309   -1.3848 P.3       1 ATP         1.5908
     10 O1A         5.9209    0.0232   -2.5956 O.co2     1 ATP        -0.8932
     11 O2A         6.5856    2.2784   -1.4151 O.co2     1 ATP        -0.8932
     12 O3A         6.4552    0.0987   -0.0938 O.3       1 ATP        -0.8088
     13 O5'         4.3516    1.1575   -0.9026 O.3       1 ATP        -0.5646
     14 C5'         4.0922    1.9801    0.2227 C.3       1 ATP         0.2204
     15 C4'         2.5944    2.0310    0.4653 C.3       1 ATP         0.0965
     16 O4'         1.9327    2.5740   -0.6889 O.3       1 ATP        -0.3907
     17 C3'         1.9685    0.6634    0.6767 C.3       1 ATP         0.0763
     18 O3'         2.1425    0.1975    1.9977 O.3       1 ATP        -0.5884
     19 C2'         0.5176    0.9128    0.3099 C.3       1 ATP         0.0784
     20 O2'        -0.2103    1.4454    1.4152 O.3       1 ATP        -0.6085
     21 C1'         0.6219    1.9765   -0.7844 C.3       1 ATP         0.2186
     22 N9          0.4237    1.4496   -2.1357 N.pl3     1 ATP        -0.1699
     23 C8          1.1891    0.4862   -2.7452 C.ar      1 ATP         0.4438
     24 N7          0.7743    0.2113   -3.9661 N.2       1 ATP        -0.6280
     25 C5         -0.3017    1.0326   -4.1458 C.ar      1 ATP         0.2109
     26 C6         -1.1512    1.1578   -5.3076 C.ar      1 ATP         0.6180
     27 N6         -0.9306    0.4354   -6.3493 N.2       1 ATP        -0.8319
     28 N1         -2.1281    2.1133   -5.0636 N.pl3     1 ATP        -0.8664
     29 C2         -2.2653    2.8370   -3.8811 C.ar      1 ATP         0.5952
     30 N3         -1.5123    2.7429   -2.8189 N.2       1 ATP        -0.5599
     31 C4         -0.5429    1.8121   -3.0273 C.ar      1 ATP         0.0076
     32 HOG3        9.5587   -3.0253    0.8590 H         1 ATP         0.4101
     33 H5'1        4.6069    1.5618    1.0936 H         1 ATP         0.0364
     34 H5'2        4.4824    2.9837    0.0254 H         1 ATP         0.0364
     35 H4'         2.3752    2.7029    1.3156 H         1 ATP         0.0945
     36 H3'         2.4336   -0.1217   -0.0015 H         1 ATP         0.0703
     37 HO3'        3.0987    0.1465    2.1461 H         1 ATP         0.4099
     38 H2'         0.0316    0.0155   -0.0339 H         1 ATP         0.0676
     39 HO2'       -0.1608    0.7921    2.1351 H         1 ATP         0.4291
     40 H1'        -0.1474    2.7798   -0.6651 H         1 ATP         0.0950
     41 H8          2.0323    0.0251   -2.2492 H         1 ATP         0.1135
     42 HN62       -1.6261    0.6558   -7.0707 H         1 ATP         0.3588
     43 H2         -3.1123    3.5402   -3.9130 H         1 ATP         0.0302
     44 H44        -2.7975    2.2966   -5.8068 H         1 ATP         0.4215
@<TRIPOS>BOND
     1    1    2 2
     2    1    3 1
     3    1    4 1
     4    1    8 1
     5    4   32 1
     6    5    6 2
     7    5    7 1
     8    5    8 1
     9    5   12 1
    10    9   10 2
    11    9   11 1
    12    9   12 1
    13    9   13 1
    14   13   14 1
    15   14   15 1
    16   14   33 1
    17   14   34 1
    18   15   16 1
    19   15   17 1
    20   15   35 1
    21   16   21 1
    22   17   18 1
    23   17   19 1
    24   17   36 1
    25   18   37 1
    26   19   20 1
    27   19   21 1
    28   19   38 1
    29   20   39 1
    30   21   22 1
    31   21   40 1
    32   22   23 ar
    33   22   31 ar
    34   23   24 ar
    35   23   41 1
    36   24   25 ar
    37   25   26 ar
    38   25   31 ar
    39   26   27 2
    40   26   28 ar
    41   27   42 1
    42   28   29 ar
    43   28   44 1
    44   29   30 ar
    45   29   43 1
    46   30   31 ar
@<TRIPOS>SUBSTRUCTURE
     1 ATP         1 GROUP 0 A     ****
@<TRIPOS>MOLECULE
[[[3,4-dihydroxy-5-(6-imino-1~{H}-purin-9-yl)tetrahydrofuran-2-yl]methoxy-oxido-phosphoryl]oxy-oxido-phosphoryl] hydrogen phosphate
   44    46     1     0     0
SMALL
USER_CHARGES

@<TRIPOS>ATOM
      1 PG          8.6409    4.5205    4.9977 P.3       1 ATP         1.5257
      2 O1G         8.9303    3.4290    6.0039 O.co2     1 ATP        -0.8737
      3 O2G         8.2304    5.9046    5.4489 O.co2     1 ATP        -0.8737
      4 O3G         9.9259    4.6603    4.0001 O.3       1 ATP        -0.7971
      5 PB          6.9948    4.6619    2.5454 P.3       1 ATP         1.6824
      6 O1B         6.1948    5.8922    2.9111 O.co2     1 ATP        -0.8925
      7 O2B         8.1284    4.7330    1.5466 O.co2     1 ATP        -0.8925
      8 O3B         7.5484    3.9707    3.9170 O.3       1 ATP        -0.8047
      9 PA          6.2528    1.9160    1.7305 P.3       1 ATP         1.5908
     10 O1A         6.7152    1.2121    2.9879 O.co2     1 ATP        -0.8932
     11 O2A         7.0781    1.8581    0.4635 O.co2     1 ATP        -0.8932
     12 O3A         5.9626    3.4848    2.0832 O.3       1 ATP        -0.8088
     13 O5'         4.7294    1.4427    1.3696 O.3       1 ATP        -0.5646
     14 C5'         4.0922    1.9801    0.2227 C.3       1 ATP         0.2204
     15 C4'         2.5944    2.0310    0.4653 C.3       1 ATP         0.0965
     16 O4'         1.9327    2.5740   -0.6889 O.3       1 ATP        -0.3907
     17 C3'         1.9685    0.6634    0.6767 C.3       1 ATP         0.0763
     18 O3'         2.1425    0.1975    1.9977 O.3       1 ATP        -0.5884
     19 C2'         0.5176    0.9128    0.3099 C.3       1 ATP         0.0784
     20 O2'        -0.2103    1.4454    1.4152 O.3       1 ATP        -0.6085
     21 C1'         0.6219    1.9765   -0.7844 C.3       1 ATP         0.2186
     22 N9          0.4237    1.4496   -2.1357 N.pl3     1 ATP        -0.1699
     23 C8          1.4069    0.9710   -2.9662 C.ar      1 ATP         0.4438
     24 N7          0.9316    0.5623   -4.1260 N.2       1 ATP        -0.6280
     25 C5         -0.4120    0.7884   -4.0344 C.ar      1 ATP         0.2109
     26 C6         -1.4353    0.5283   -5.0204 C.ar      1 ATP         0.6180
     27 N6         -1.1199    0.0176   -6.1586 N.2       1 ATP        -0.8319
     28 N1         -2.6704    0.9095   -4.5147 N.pl3     1 ATP        -0.8664
     29 C2         -2.8863    1.4571   -3.2520 C.ar      1 ATP         0.5952
     30 N3         -1.9805    1.7017   -2.3442 N.2       1 ATP        -0.5599
     31 C4         -0.7561    1.3381   -2.8112 C.ar      1 ATP         0.0076
     32 HOG3        9.8918    5.3321    3.2862 H         1 ATP         0.4101
     33 H5'1        4.4843    2.9854    0.0380 H         1 ATP         0.0364
     34 H5'2        4.3191    1.3446   -0.6392 H         1 ATP         0.0364
     35 H4'         2.3752    2.7029    1.3156 H         1 ATP         0.0945
     36 H3'         2.4336   -0.1217   -0.0015 H         1 ATP         0.0703
     37 HO3'        1.7160   -0.6716    2.0397 H         1 ATP         0.4099
     38 H2'         0.0316    0.0155   -0.0339 H         1 ATP         0.0676
     39 HO2'       -0.1608    0.7921    2.1351 H         1 ATP         0.4291
     40 H1'        -0.1474    2.7798   -0.6651 H         1 ATP         0.0950
     41 H8          2.4466    0.9468   -2.6694 H         1 ATP         0.1135
     42 HN62       -1.9661   -0.0965   -6.7275 H         1 ATP         0.3588
     43 H2         -3.9481    1.6825   -3.0660 H         1 ATP         0.0302
     44 H44        -3.4814    0.7753   -5.1133 H         1 ATP         0.4215
@<TRIPOS>BOND
     1    1    2 2
     2    1    3 1
     3    1    4 1
     4    1    8 1
     5    4   32 1
     6    5    6 2
     7    5    7 1
     8    5    8 1
     9    5   12 1
    10    9   10 2
    11    9   11 1
    12    9   12 1
    13    9   13 1
    14   13   14 1
    15   14   15 1
    16   14   33 1
    17   14   34 1
    18   15   16 1
    19   15   17 1
    20   15   35 1
    21   16   21 1
    22   17   18 1
    23   17   19 1
    24   17   36 1
    25   18   37 1
    26   19   20 1
    27   19   21 1
    28   19   38 1
    29   20   39 1
    30   21   22 1
    31   21   40 1
    32   22   23 ar
    33   22   31 ar
    34   23   24 ar
    35   23   41 1
    36   24   25 ar
    37   25   26 ar
    38   25   31 ar
    39   26   27 2
    40   26   28 ar
    41   27   42 1
    42   28   29 ar
    43   28   44 1
    44   29   30 ar
    45   29   43 1
    46   30   31 ar
@<TRIPOS>SUBSTRUCTURE
     1 ATP         1 GROUP 0 A     ****
@<TRIPOS>MOLECULE
[[[3,4-dihydroxy-5-(6-imino-1~{H}-purin-9-yl)tetrahydrofuran-2-yl]methoxy-oxido-phosphoryl]oxy-oxido-phosphoryl] hydrogen phosphate
   44    46     1     0     0
SMALL
USER_CHARGES

@<TRIPOS>ATOM
      1 PG         -2.5123    9.0124    3.8226 P.3       1 ATP         1.5257
      2 O1G        -2.8548    8.8996    5.2914 O.co2     1 ATP        -0.8737
      3 O2G        -3.4383    9.7233    2.8609 O.co2     1 ATP        -0.8737
      4 O3G        -1.0222    9.6657    3.6862 O.3       1 ATP        -0.7971
      5 PB         -3.1691    6.2381    3.0379 P.3       1 ATP         1.6824
      6 O1B        -3.5996    5.7407    4.3998 O.co2     1 ATP        -0.8925
      7 O2B        -4.1851    6.5675    1.9671 O.co2     1 ATP        -0.8925
      8 O3B        -2.1837    7.5244    3.2380 O.3       1 ATP        -0.8047
      9 PA         -0.6907    4.6220    3.0690 P.3       1 ATP         1.5908
     10 O1A        -1.0311    3.7734    4.2749 O.co2     1 ATP        -0.8932
     11 O2A         0.2895    5.7692    3.1823 O.co2     1 ATP        -0.8932
     12 O3A        -2.0773    5.1933    2.4204 O.3       1 ATP        -0.8088
     13 O5'        -0.2062    3.6557    1.8417 O.3       1 ATP        -0.5646
     14 C5'        -0.8811    2.4285    1.6206 C.3       1 ATP         0.2204
     15 C4'        -0.1994    1.3333    2.4288 C.3       1 ATP         0.0965
     16 O4'        -1.1285    0.2356    2.5840 O.3       1 ATP        -0.3907
     17 C3'         1.0324    0.7610    1.7344 C.3       1 ATP         0.0763
     18 O3'         1.9175    0.2377    2.7247 O.3       1 ATP        -0.5884
     19 C2'         0.4468   -0.3802    0.9263 C.3       1 ATP         0.0784
     20 O2'         1.3993   -1.3703    0.5961 O.3       1 ATP        -0.6085
     21 C1'        -0.6159   -0.9100    1.8769 C.3       1 ATP         0.2186
     22 N9         -1.7127   -1.6108    1.2130 N.pl3     1 ATP        -0.1699
     23 C8         -2.5485   -1.0808    0.2609 C.ar      1 ATP         0.4438
     24 N7         -3.4476   -1.9486   -0.1593 N.2       1 ATP        -0.6280
     25 C5         -3.1762   -3.0816    0.5530 C.ar      1 ATP         0.2109
     26 C6         -3.8510   -4.3579    0.5006 C.ar      1 ATP         0.6180
     27 N6         -4.8468   -4.5293   -0.2961 N.2       1 ATP        -0.8319
     28 N1         -3.2499   -5.2342    1.3937 N.pl3     1 ATP        -0.8664
     29 C2         -2.1646   -4.9275    2.2116 C.ar      1 ATP         0.5952
     30 N3         -1.5382   -3.7840    2.2778 N.2       1 ATP        -0.5599
     31 C4         -2.1054   -2.9018    1.4120 C.ar      1 ATP         0.0076
     32 HOG3       -0.6538    9.8047    2.7877 H         1 ATP         0.4101
     33 H5'1       -1.9256    2.5380    1.9293 H         1 ATP         0.0364
     34 H5'2       -0.8474    2.1930    0.5521 H         1 ATP         0.0364
     35 H4'         0.0403    1.7078    3.4343 H         1 ATP         0.0945
     36 H3'         1.5907    1.4859    1.1353 H         1 ATP         0.0703
     37 HO3'        2.6839   -0.1150    2.2479 H         1 ATP         0.4099
     38 H2'        -0.0017    0.0018    0.0005 H         1 ATP         0.0676
     39 HO2'        0.9369   -2.0558    0.0825 H         1 ATP         0.4291
     40 H1'        -0.1998   -1.6319    2.6178 H         1 ATP         0.0950
     41 H8         -2.4515   -0.0599   -0.0829 H         1 ATP         0.1135
     42 HN62       -5.1990   -5.4882   -0.2005 H         1 ATP         0.3588
     43 H2         -1.8555   -5.7783    2.8388 H         1 ATP         0.0302
     44 H44        -3.6312   -6.1750    1.4526 H         1 ATP         0.4215
@<TRIPOS>BOND
     1    1    2 2
     2    1    3 1
     3    1    4 1
     4    1    8 1
     5    4   32 1
     6    5    6 2
     7    5    7 1
     8    5    8 1
     9    5   12 1
    10    9   10 2
    11    9   11 1
    12    9   12 1
    13    9   13 1
    14   13   14 1
    15   14   15 1
    16   14   33 1
    17   14   34 1
    18   15   16 1
    19   15   17 1
    20   15   35 1
    21   16   21 1
    22   17   18 1
    23   17   19 1
    24   17   36 1
    25   18   37 1
    26   19   20 1
    27   19   21 1
    28   19   38 1
    29   20   39 1
    30   21   22 1
    31   21   40 1
    32   22   23 ar
    33   22   31 ar
    34   23   24 ar
    35   23   41 1
    36   24   25 ar
    37   25   26 ar
    38   25   31 ar
    39   26   27 2
    40   26   28 ar
    41   27   42 1
    42   28   29 ar
    43   28   44 1
    44   29   30 ar
    45   29   43 1
    46   30   31 ar
@<TRIPOS>SUBSTRUCTURE
     1 ATP         1 GROUP 0 A     ****
@<TRIPOS>MOLECULE
[[[3,4-dihydroxy-5-(6-imino-1~{H}-purin-9-yl)tetrahydrofuran-2-yl]methoxy-oxido-phosphoryl]oxy-oxido-phosphoryl] hydrogen phosphate
   44    46     1     0     0
SMALL
USER_CHARGES

@<TRIPOS>ATOM
      1 PG          0.9287    7.8389    4.3992 P.3       1 ATP         1.5257
      2 O1G         0.0738    8.5374    5.4329 O.co2     1 ATP        -0.8737
      3 O2G         1.6942    8.6290    3.3611 O.co2     1 ATP        -0.8737
      4 O3G         1.9731    6.8502    5.1722 O.3       1 ATP        -0.7971
      5 PB         -1.2528    6.8802    2.6483 P.3       1 ATP         1.6824
      6 O1B        -2.4101    7.4439    3.4423 O.co2     1 ATP        -0.8925
      7 O2B        -0.7867    7.5378    1.3685 O.co2     1 ATP        -0.8925
      8 O3B         0.0293    6.7055    3.6440 O.3       1 ATP        -0.8047
      9 PA         -1.9156    4.0918    3.3837 P.3       1 ATP         1.5908
     10 O1A        -3.2735    4.3719    3.9903 O.co2     1 ATP        -0.8932
     11 O2A        -0.7136    3.8310    4.2651 O.co2     1 ATP        -0.8932
     12 O3A        -1.5422    5.3014    2.3507 O.3       1 ATP        -0.8088
     13 O5'        -2.0401    2.8620    2.3128 O.3       1 ATP        -0.5646
     14 C5'        -0.8811    2.4285    1.6206 C.3       1 ATP         0.2204
     15 C4'        -0.1994    1.3333    2.4288 C.3       1 ATP         0.0965
     16 O4'        -1.1285    0.2356    2.5840 O.3       1 ATP        -0.3907
     17 C3'         1.0324    0.7610    1.7344 C.3       1 ATP         0.0763
     18 O3'         1.9175    0.2377    2.7247 O.3       1 ATP        -0.5884
     19 C2'         0.4468   -0.3802    0.9263 C.3       1 ATP         0.0784
     20 O2'         1.3993   -1.3703    0.5961 O.3       1 ATP        -0.6085
     21 C1'        -0.6159   -0.9100    1.8769 C.3       1 ATP         0.2186
     22 N9         -1.7127   -1.6108    1.2130 N.pl3     1 ATP        -0.1699
     23 C8         -2.0868   -2.9137    1.4327 C.ar      1 ATP         0.4438
     24 N7         -3.1125   -3.2756    0.6878 N.2       1 ATP        -0.6280
     25 C5         -3.4079   -2.1580   -0.0391 C.ar      1 ATP         0.2109
     26 C6         -4.4483   -1.9775   -1.0249 C.ar      1 ATP         0.6180
     27 N6         -5.2418   -2.9492   -1.3113 N.2       1 ATP        -0.8319
     28 N1         -4.3937   -0.6823   -1.5211 N.pl3     1 ATP        -0.8664
     29 C2         -3.4770    0.2901   -1.1271 C.ar      1 ATP         0.5952
     30 N3         -2.5289    0.1525   -0.2402 N.2       1 ATP        -0.5599
     31 C4         -2.5564   -1.1096    0.2655 C.ar      1 ATP         0.0076
     32 HOG3        2.6012    6.3223    4.6346 H         1 ATP         0.4101
     33 H5'1       -1.1767    2.0502    0.6368 H         1 ATP         0.0364
     34 H5'2       -0.2080    3.2814    1.4876 H         1 ATP         0.0364
     35 H4'         0.0403    1.7078    3.4343 H         1 ATP         0.0945
     36 H3'         1.5907    1.4859    1.1353 H         1 ATP         0.0703
     37 HO3'        2.6839   -0.1150    2.2479 H         1 ATP         0.4099
     38 H2'        -0.0017    0.0018    0.0005 H         1 ATP         0.0676
     39 HO2'        2.0953   -0.9375    0.0709 H         1 ATP         0.4291
     40 H1'        -0.1998   -1.6319    2.6178 H         1 ATP         0.0950
     41 H8         -1.5740   -3.5449    2.1457 H         1 ATP         0.1135
     42 HN62       -5.9117   -2.6433   -2.0256 H         1 ATP         0.3588
     43 H2         -3.6225    1.2454   -1.6553 H         1 ATP         0.0302
     44 H44        -5.0794   -0.4231   -2.2258 H         1 ATP         0.4215
@<TRIPOS>BOND
     1    1    2 2
     2    1    3 1
     3    1    4 1
     4    1    8 1
     5    4   32 1
     6    5    6 2
     7    5    7 1
     8    5    8 1
     9    5   12 1
    10    9   10 2
    11    9   11 1
    12    9   12 1
    13    9   13 1
    14   13   14 1
    15   14   15 1
    16   14   33 1
    17   14   34 1
    18   15   16 1
    19   15   17 1
    20   15   35 1
    21   16   21 1
    22   17   18 1
    23   17   19 1
    24   17   36 1
    25   18   37 1
    26   19   20 1
    27   19   21 1
    28   19   38 1
    29   20   39 1
    30   21   22 1
    31   21   40 1
    32   22   23 ar
    33   22   31 ar
    34   23   24 ar
    35   23   41 1
    36   24   25 ar
    37   25   26 ar
    38   25   31 ar
    39   26   27 2
    40   26   28 ar
    41   27   42 1
    42   28   29 ar
    43   28   44 1
    44   29   30 ar
    45   29   43 1
    46   30   31 ar
@<TRIPOS>SUBSTRUCTURE
     1 ATP         1 GROUP 0 A     ****
@<TRIPOS>MOLECULE
[[[3,4-dihydroxy-5-(6-imino-1~{H}-purin-9-yl)tetrahydrofuran-2-yl]methoxy-oxido-phosphoryl]oxy-oxido-phosphoryl] hydrogen phosphate
   44    46     1     0     0
SMALL
USER_CHARGES

@<TRIPOS>ATOM
      1 PG         10.2617    3.1624    3.4608 P.3       1 ATP         1.5257
      2 O1G        10.3827    4.6077    3.8894 O.co2     1 ATP        -0.8737
      3 O2G        11.3385    2.5067    2.6251 O.co2     1 ATP        -0.8737
      4 O3G        10.0068    2.2472    4.7887 O.3       1 ATP        -0.7971
      5 PB          8.2613    3.5406    1.3162 P.3       1 ATP         1.6824
      6 O1B         8.1035    5.0387    1.4507 O.co2     1 ATP        -0.8925
      7 O2B         9.0628    2.9357    0.1852 O.co2     1 ATP        -0.8925
      8 O3B         8.8187    2.9440    2.7301 O.3       1 ATP        -0.8047
      9 PA          6.3565    1.2771    1.3734 P.3       1 ATP         1.5908
     10 O1A         6.8004    0.6872    2.6945 O.co2     1 ATP        -0.8932
     11 O2A         6.7697    0.6406    0.0643 O.co2     1 ATP        -0.8932
     12 O3A         6.7801    2.8546    1.3338 O.3       1 ATP        -0.8088
     13 O5'         4.7294    1.4427    1.3696 O.3       1 ATP        -0.5646
     14 C5'         4.0922    1.9801    0.2227 C.3       1 ATP         0.2204
     15 C4'         2.5944    2.0310    0.4653 C.3       1 ATP         0.0965
     16 O4'         1.9327    2.5740   -0.6889 O.3       1 ATP        -0.3907
     17 C3'         1.9685    0.6634    0.6767 C.3       1 ATP         0.0763
     18 O3'         2.1425    0.1975    1.9977 O.3       1 ATP        -0.5884
     19 C2'         0.5176    0.9128    0.3099 C.3       1 ATP         0.0784
     20 O2'        -0.2103    1.4454    1.4152 O.3       1 ATP        -0.6085
     21 C1'         0.6219    1.9765   -0.7844 C.3       1 ATP         0.2186
     22 N9          0.4237    1.4496   -2.1357 N.pl3     1 ATP        -0.1699
     23 C8          1.1891    0.4862   -2.7452 C.ar      1 ATP         0.4438
     24 N7          0.7743    0.2113   -3.9661 N.2       1 ATP        -0.6280
     25 C5         -0.3017    1.0326   -4.1458 C.ar      1 ATP         0.2109
     26 C6         -1.1512    1.1578   -5.3076 C.ar      1 ATP         0.6180
     27 N6         -0.9306    0.4354   -6.3493 N.2       1 ATP        -0.8319
     28 N1         -2.1281    2.1133   -5.0636 N.pl3     1 ATP        -0.8664
     29 C2         -2.2653    2.8370   -3.8811 C.ar      1 ATP         0.5952
     30 N3         -1.5123    2.7429   -2.8189 N.2       1 ATP        -0.5599
     31 C4         -0.5429    1.8121   -3.0273 C.ar      1 ATP         0.0076
     32 HOG3        9.9062    1.2780    4.6755 H         1 ATP         0.4101
     33 H5'1        4.4843    2.9854    0.0380 H         1 ATP         0.0364
     34 H5'2        4.3191    1.3446   -0.6392 H         1 ATP         0.0364
     35 H4'         2.3752    2.7029    1.3156 H         1 ATP         0.0945
     36 H3'         2.4336   -0.1217   -0.0015 H         1 ATP         0.0703
     37 HO3'        1.7160   -0.6716    2.0397 H         1 ATP         0.4099
     38 H2'         0.0316    0.0155   -0.0339 H         1 ATP         0.0676
     39 HO2'       -0.1608    0.7921    2.1351 H         1 ATP         0.4291
     40 H1'        -0.1474    2.7798   -0.6651 H         1 ATP         0.0950
     41 H8          2.0323    0.0251   -2.2492 H         1 ATP         0.1135
     42 HN62       -1.6261    0.6558   -7.0707 H         1 ATP         0.3588
     43 H2         -3.1123    3.5402   -3.9130 H         1 ATP         0.0302
     44 H44        -2.7975    2.2966   -5.8068 H         1 ATP         0.4215
@<TRIPOS>BOND
     1    1    2 2
     2    1    3 1
     3    1    4 1
     4    1    8 1
     5    4   32 1
     6    5    6 2
     7    5    7 1
     8    5    8 1
     9    5   12 1
    10    9   10 2
    11    9   11 1
    12    9   12 1
    13    9   13 1
    14   13   14 1
    15   14   15 1
    16   14   33 1
    17   14   34 1
    18   15   16 1
    19   15   17 1
    20   15   35 1
    21   16   21 1
    22   17   18 1
    23   17   19 1
    24   17   36 1
    25   18   37 1
    26   19   20 1
    27   19   21 1
    28   19   38 1
    29   20   39 1
    30   21   22 1
    31   21   40 1
    32   22   23 ar
    33   22   31 ar
    34   23   24 ar
    35   23   41 1
    36   24   25 ar
    37   25   26 ar
    38   25   31 ar
    39   26   27 2
    40   26   28 ar
    41   27   42 1
    42   28   29 ar
    43   28   44 1
    44   29   30 ar
    45   29   43 1
    46   30   31 ar
@<TRIPOS>SUBSTRUCTURE
     1 ATP         1 GROUP 0 A     ****
@<TRIPOS>MOLECULE
[[[3,4-dihydroxy-5-(6-imino-1~{H}-purin-9-yl)tetrahydrofuran-2-yl]methoxy-oxido-phosphoryl]oxy-oxido-phosphoryl] hydrogen phosphate
   44    46     1     0     0
SMALL
USER_CHARGES

@<TRIPOS>ATOM
      1 PG          3.2112    5.2765    5.9177 P.3       1 ATP         1.5257
      2 O1G         1.7763    4.8521    6.1375 O.co2     1 ATP        -0.8737
      3 O2G         3.6404    6.7099    6.1390 O.co2     1 ATP        -0.8737
      4 O3G         4.1810    4.3030    6.7996 O.3       1 ATP        -0.7971
      5 PB          5.1554    4.8686    3.7275 P.3       1 ATP         1.6824
      6 O1B         5.5363    6.3181    3.5243 O.co2     1 ATP        -0.8925
      7 O2B         6.0754    3.9110    4.4515 O.co2     1 ATP        -0.8925
      8 O3B         3.6813    4.8078    4.4267 O.3       1 ATP        -0.8047
      9 PA          5.6979    3.9301    0.9743 P.3       1 ATP         1.5908
     10 O1A         6.7120    2.8652    1.3318 O.co2     1 ATP        -0.8932
     11 O2A         6.1406    5.2577    0.3987 O.co2     1 ATP        -0.8932
     12 O3A         4.7614    4.2234    2.2806 O.3       1 ATP        -0.8088
     13 O5'         4.5670    3.2937   -0.0211 O.3       1 ATP        -0.5646
     14 C5'         4.0922    1.9801    0.2227 C.3       1 ATP         0.2204
     15 C4'         2.5944    2.0310    0.4653 C.3       1 ATP         0.0965
     16 O4'         1.9327    2.5740   -0.6889 O.3       1 ATP        -0.3907
     17 C3'         1.9685    0.6634    0.6767 C.3       1 ATP         0.0763
     18 O3'         2.1425    0.1975    1.9977 O.3       1 ATP        -0.5884
     19 C2'         0.5176    0.9128    0.3099 C.3       1 ATP         0.0784
     20 O2'        -0.2103    1.4454    1.4152 O.3       1 ATP        -0.6085
     21 C1'         0.6219    1.9765   -0.7844 C.3       1 ATP         0.2186
     22 N9          0.4237    1.4496   -2.1357 N.pl3     1 ATP        -0.1699
     23 C8          1.4069    0.9710   -2.9662 C.ar      1 ATP         0.4438
     24 N7          0.9316    0.5623   -4.1260 N.2       1 ATP        -0.6280
     25 C5         -0.4120    0.7884   -4.0344 C.ar      1 ATP         0.2109
     26 C6         -1.4353    0.5283   -5.0204 C.ar      1 ATP         0.6180
     27 N6         -1.1199    0.0176   -6.1586 N.2       1 ATP        -0.8319
     28 N1         -2.6704    0.9095   -4.5147 N.pl3     1 ATP        -0.8664
     29 C2         -2.8863    1.4571   -3.2520 C.ar      1 ATP         0.5952
     30 N3         -1.9805    1.7017   -2.3442 N.2       1 ATP        -0.5599
     31 C4         -0.7561    1.3381   -2.8112 C.ar      1 ATP         0.0076
     32 HOG3        5.1499    4.4523    6.7634 H         1 ATP         0.4101
     33 H5'1        4.3179    1.3548   -0.6470 H         1 ATP         0.0364
     34 H5'2        4.6083    1.5737    1.0983 H         1 ATP         0.0364
     35 H4'         2.3752    2.7029    1.3156 H         1 ATP         0.0945
     36 H3'         2.4336   -0.1217   -0.0015 H         1 ATP         0.0703
     37 HO3'        1.7160   -0.6716    2.0397 H         1 ATP         0.4099
     38 H2'         0.0316    0.0155   -0.0339 H         1 ATP         0.0676
     39 HO2'       -0.1608    0.7921    2.1351 H         1 ATP         0.4291
     40 H1'        -0.1474    2.7798   -0.6651 H         1 ATP         0.0950
     41 H8          2.4466    0.9468   -2.6694 H         1 ATP         0.1135
     42 HN62       -1.9661   -0.0965   -6.7275 H         1 ATP         0.3588
     43 H2         -3.9481    1.6825   -3.0660 H         1 ATP         0.0302
     44 H44        -3.4814    0.7753   -5.1133 H         1 ATP         0.4215
@<TRIPOS>BOND
     1    1    2 2
     2    1    3 1
     3    1    4 1
     4    1    8 1
     5    4   32 1
     6    5    6 2
     7    5    7 1
     8    5    8 1
     9    5   12 1
    10    9   10 2
    11    9   11 1
    12    9   12 1
    13    9   13 1
    14   13   14 1
    15   14   15 1
    16   14   33 1
    17   14   34 1
    18   15   16 1
    19   15   17 1
    20   15   35 1
    21   16   21 1
    22   17   18 1
    23   17   19 1
    24   17   36 1
    25   18   37 1
    26   19   20 1
    27   19   21 1
    28   19   38 1
    29   20   39 1
    30   21   22 1
    31   21   40 1
    32   22   23 ar
    33   22   31 ar
    34   23   24 ar
    35   23   41 1
    36   24   25 ar
    37   25   26 ar
    38   25   31 ar
    39   26   27 2
    40   26   28 ar
    41   27   42 1
    42   28   29 ar
    43   28   44 1
    44   29   30 ar
    45   29   43 1
    46   30   31 ar
@<TRIPOS>SUBSTRUCTURE
     1 ATP         1 GROUP 0 A     ****
@<TRIPOS>MOLECULE
[[[3,4-dihydroxy-5-(6-imino-1~{H}-purin-9-yl)tetrahydrofuran-2-yl]methoxy-oxido-phosphoryl]oxy-oxido-phosphoryl] hydrogen phosphate
   44    46     1     0     0
SMALL
USER_CHARGES

@<TRIPOS>ATOM
      1 PG          8.1539    4.7362   -0.5009 P.3       1 ATP         1.5257
      2 O1G         7.7659    6.1974   -0.5437 O.co2     1 ATP        -0.8737
      3 O2G         7.2480    3.6741   -1.0831 O.co2     1 ATP        -0.8737
      4 O3G         9.6367    4.5736   -1.1647 O.3       1 ATP        -0.7971
      5 PB          7.5685    4.2438    2.3554 P.3       1 ATP         1.6824
      6 O1B         8.3679    3.6552    3.4964 O.co2     1 ATP        -0.8925
      7 O2B         6.8346    5.5574    2.5089 O.co2     1 ATP        -0.8925
      8 O3B         8.5256    4.3301    1.0356 O.3       1 ATP        -0.8047
      9 PA          5.2202    2.4549    2.5568 P.3       1 ATP         1.5908
     10 O1A         4.1772    3.5316    2.7649 O.co2     1 ATP        -0.8932
     11 O2A         5.7107    1.6182    3.7182 O.co2     1 ATP        -0.8932
     12 O3A         6.5178    3.1167    1.8164 O.3       1 ATP        -0.8088
     13 O5'         4.7294    1.4427    1.3696 O.3       1 ATP        -0.5646
     14 C5'         4.0922    1.9801    0.2227 C.3       1 ATP         0.2204
     15 C4'         2.5944    2.0310    0.4653 C.3       1 ATP         0.0965
     16 O4'         1.9327    2.5740   -0.6889 O.3       1 ATP        -0.3907
     17 C3'         1.9685    0.6634    0.6767 C.3       1 ATP         0.0763
     18 O3'         2.1425    0.1975    1.9977 O.3       1 ATP        -0.5884
     19 C2'         0.5176    0.9128    0.3099 C.3       1 ATP         0.0784
     20 O2'        -0.2103    1.4454    1.4152 O.3       1 ATP        -0.6085
     21 C1'         0.6219    1.9765   -0.7844 C.3       1 ATP         0.2186
     22 N9          0.4237    1.4496   -2.1357 N.pl3     1 ATP        -0.1699
     23 C8          1.4069    0.9710   -2.9662 C.ar      1 ATP         0.4438
     24 N7          0.9316    0.5623   -4.1260 N.2       1 ATP        -0.6280
     25 C5         -0.4120    0.7884   -4.0344 C.ar      1 ATP         0.2109
     26 C6         -1.4353    0.5283   -5.0204 C.ar      1 ATP         0.6180
     27 N6         -1.1199    0.0176   -6.1586 N.2       1 ATP        -0.8319
     28 N1         -2.6704    0.9095   -4.5147 N.pl3     1 ATP        -0.8664
     29 C2         -2.8863    1.4571   -3.2520 C.ar      1 ATP         0.5952
     30 N3         -1.9805    1.7017   -2.3442 N.2       1 ATP        -0.5599
     31 C4         -0.7561    1.3381   -2.8112 C.ar      1 ATP         0.0076
     32 HOG3       10.0317    3.6769   -1.2112 H         1 ATP         0.4101
     33 H5'1        4.4843    2.9854    0.0380 H         1 ATP         0.0364
     34 H5'2        4.3191    1.3446   -0.6392 H         1 ATP         0.0364
     35 H4'         2.3752    2.7029    1.3156 H         1 ATP         0.0945
     36 H3'         2.4336   -0.1217   -0.0015 H         1 ATP         0.0703
     37 HO3'        3.0987    0.1465    2.1461 H         1 ATP         0.4099
     38 H2'         0.0316    0.0155   -0.0339 H         1 ATP         0.0676
     39 HO2'       -0.1608    0.7921    2.1351 H         1 ATP         0.4291
     40 H1'        -0.1474    2.7798   -0.6651 H         1 ATP         0.0950
     41 H8          2.4466    0.9468   -2.6694 H         1 ATP         0.1135
     42 HN62       -1.9661   -0.0965   -6.7275 H         1 ATP         0.3588
     43 H2         -3.9481    1.6825   -3.0660 H         1 ATP         0.0302
     44 H44        -3.4814    0.7753   -5.1133 H         1 ATP         0.4215
@<TRIPOS>BOND
     1    1    2 2
     2    1    3 1
     3    1    4 1
     4    1    8 1
     5    4   32 1
     6    5    6 2
     7    5    7 1
     8    5    8 1
     9    5   12 1
    10    9   10 2
    11    9   11 1
    12    9   12 1
    13    9   13 1
    14   13   14 1
    15   14   15 1
    16   14   33 1
    17   14   34 1
    18   15   16 1
    19   15   17 1
    20   15   35 1
    21   16   21 1
    22   17   18 1
    23   17   19 1
    24   17   36 1
    25   18   37 1
    26   19   20 1
    27   19   21 1
    28   19   38 1
    29   20   39 1
    30   21   22 1
    31   21   40 1
    32   22   23 ar
    33   22   31 ar
    34   23   24 ar
    35   23   41 1
    36   24   25 ar
    37   25   26 ar
    38   25   31 ar
    39   26   27 2
    40   26   28 ar
    41   27   42 1
    42   28   29 ar
    43   28   44 1
    44   29   30 ar
    45   29   43 1
    46   30   31 ar
@<TRIPOS>SUBSTRUCTURE
     1 ATP         1 GROUP 0 A     ****
@<TRIPOS>MOLECULE
[[[3,4-dihydroxy-5-(6-imino-1~{H}-purin-9-yl)tetrahydrofuran-2-yl]methoxy-oxido-phosphoryl]oxy-oxido-phosphoryl] hydrogen phosphate
   44    46     1     0     0
SMALL
USER_CHARGES

@<TRIPOS>ATOM
      1 PG         -3.3561   -2.3446    5.2980 P.3       1 ATP         1.5257
      2 O1G        -3.9451   -3.3083    4.2921 O.co2     1 ATP        -0.8737
      3 O2G        -4.0425   -2.0858    6.6207 O.co2     1 ATP        -0.8737
      4 O3G        -1.8110   -2.7826    5.5927 O.3       1 ATP        -0.7971
      5 PB         -4.1224    0.1715    3.9470 P.3       1 ATP         1.6824
      6 O1B        -4.8150   -0.4449    2.7521 O.co2     1 ATP        -0.8925
      7 O2B        -4.9138    0.7773    5.0847 O.co2     1 ATP        -0.8925
      8 O3B        -3.0714   -0.9163    4.5614 O.3       1 ATP        -0.8047
      9 PA         -3.2890    2.7005    2.6567 P.3       1 ATP         1.5908
     10 O1A        -3.9939    3.6421    3.6090 O.co2     1 ATP        -0.8932
     11 O2A        -3.8602    2.4175    1.2844 O.co2     1 ATP        -0.8932
     12 O3A        -3.0427    1.2741    3.4147 O.3       1 ATP        -0.8088
     13 O5'        -1.7336    3.1724    2.4750 O.3       1 ATP        -0.5646
     14 C5'        -0.8811    2.4285    1.6206 C.3       1 ATP         0.2204
     15 C4'        -0.1994    1.3333    2.4288 C.3       1 ATP         0.0965
     16 O4'        -1.1285    0.2356    2.5840 O.3       1 ATP        -0.3907
     17 C3'         1.0324    0.7610    1.7344 C.3       1 ATP         0.0763
     18 O3'         1.9175    0.2377    2.7247 O.3       1 ATP        -0.5884
     19 C2'         0.4468   -0.3802    0.9263 C.3       1 ATP         0.0784
     20 O2'         1.3993   -1.3703    0.5961 O.3       1 ATP        -0.6085
     21 C1'        -0.6159   -0.9100    1.8769 C.3       1 ATP         0.2186
     22 N9         -1.7127   -1.6108    1.2130 N.pl3     1 ATP        -0.1699
     23 C8         -2.5485   -1.0808    0.2609 C.ar      1 ATP         0.4438
     24 N7         -3.4476   -1.9486   -0.1593 N.2       1 ATP        -0.6280
     25 C5         -3.1762   -3.0816    0.5530 C.ar      1 ATP         0.2109
     26 C6         -3.8510   -4.3579    0.5006 C.ar      1 ATP         0.6180
     27 N6         -4.8468   -4.5293   -0.2961 N.2       1 ATP        -0.8319
     28 N1         -3.2499   -5.2342    1.3937 N.pl3     1 ATP        -0.8664
     29 C2         -2.1646   -4.9275    2.2116 C.ar      1 ATP         0.5952
     30 N3         -1.5382   -3.7840    2.2778 N.2       1 ATP        -0.5599
     31 C4         -2.1054   -2.9018    1.4120 C.ar      1 ATP         0.0076
     32 HOG3       -1.2884   -2.2505    6.2299 H         1 ATP         0.4101
     33 H5'1       -1.4800    1.9927    0.8146 H         1 ATP         0.0364
     34 H5'2       -0.1367    3.1040    1.1872 H         1 ATP         0.0364
     35 H4'         0.0403    1.7078    3.4343 H         1 ATP         0.0945
     36 H3'         1.5907    1.4859    1.1353 H         1 ATP         0.0703
     37 HO3'        2.6839   -0.1150    2.2479 H         1 ATP         0.4099
     38 H2'        -0.0017    0.0018    0.0005 H         1 ATP         0.0676
     39 HO2'        2.0953   -0.9375    0.0709 H         1 ATP         0.4291
     40 H1'        -0.1998   -1.6319    2.6178 H         1 ATP         0.0950
     41 H8         -2.4515   -0.0599   -0.0829 H         1 ATP         0.1135
     42 HN62       -5.1990   -5.4882   -0.2005 H         1 ATP         0.3588
     43 H2         -1.8555   -5.7783    2.8388 H         1 ATP         0.0302
     44 H44        -3.6312   -6.1750    1.4526 H         1 ATP         0.4215
@<TRIPOS>BOND
     1    1    2 2
     2    1    3 1
     3    1    4 1
     4    1    8 1
     5    4   32 1
     6    5    6 2
     7    5    7 1
     8    5    8 1
     9    5   12 1
    10    9   10 2
    11    9   11 1
    12    9   12 1
    13    9   13 1
    14   13   14 1
    15   14   15 1
    16   14   33 1
    17   14   34 1
    18   15   16 1
    19   15   17 1
    20   15   35 1
    21   16   21 1
    22   17   18 1
    23   17   19 1
    24   17   36 1
    25   18   37 1
    26   19   20 1
    27   19   21 1
    28   19   38 1
    29   20   39 1
    30   21   22 1
    31   21   40 1
    32   22   23 ar
    33   22   31 ar
    34   23   24 ar
    35   23   41 1
    36   24   25 ar
    37   25   26 ar
    38   25   31 ar
    39   26   27 2
    40   26   28 ar
    41   27   42 1
    42   28   29 ar
    43   28   44 1
    44   29   30 ar
    45   29   43 1
    46   30   31 ar
@<TRIPOS>SUBSTRUCTURE
     1 ATP         1 GROUP 0 A     ****
@<TRIPOS>MOLECULE
[[[3,4-dihydroxy-5-(6-imino-1~{H}-purin-9-yl)tetrahydrofuran-2-yl]methoxy-oxido-phosphoryl]oxy-oxido-phosphoryl] hydrogen phosphate
   44    46     1     0     0
SMALL
USER_CHARGES

@<TRIPOS>ATOM
      1 PG         -4.5825    5.7700    1.7212 P.3       1 ATP         1.5257
      2 O1G        -4.2576    5.1642    3.0684 O.co2     1 ATP        -0.8737
      3 O2G        -5.0730    4.9079    0.5793 O.co2     1 ATP        -0.8737
      4 O3G        -5.6451    6.9896    1.9435 O.3       1 ATP        -0.7971
      5 PB         -1.8095    6.1585    0.7708 P.3       1 ATP         1.6824
      6 O1B        -1.9418    5.0848   -0.2862 O.co2     1 ATP        -0.8925
      7 O2B        -0.9477    7.3803    0.5428 O.co2     1 ATP        -0.8925
      8 O3B        -3.3040    6.6468    1.2107 O.3       1 ATP        -0.8047
      9 PA          0.0330    4.7083    2.5757 P.3       1 ATP         1.5908
     10 O1A        -0.1146    4.1098    3.9578 O.co2     1 ATP        -0.8932
     11 O2A         1.1815    5.6399    2.2548 O.co2     1 ATP        -0.8932
     12 O3A        -1.3630    5.4574    2.1758 O.3       1 ATP        -0.8088
     13 O5'         0.0178    3.5131    1.4595 O.3       1 ATP        -0.5646
     14 C5'        -0.8811    2.4285    1.6206 C.3       1 ATP         0.2204
     15 C4'        -0.1994    1.3333    2.4288 C.3       1 ATP         0.0965
     16 O4'        -1.1285    0.2356    2.5840 O.3       1 ATP        -0.3907
     17 C3'         1.0324    0.7610    1.7344 C.3       1 ATP         0.0763
     18 O3'         1.9175    0.2377    2.7247 O.3       1 ATP        -0.5884
     19 C2'         0.4468   -0.3802    0.9263 C.3       1 ATP         0.0784
     20 O2'         1.3993   -1.3703    0.5961 O.3       1 ATP        -0.6085
     21 C1'        -0.6159   -0.9100    1.8769 C.3       1 ATP         0.2186
     22 N9         -1.7127   -1.6108    1.2130 N.pl3     1 ATP        -0.1699
     23 C8         -2.0868   -2.9137    1.4327 C.ar      1 ATP         0.4438
     24 N7         -3.1125   -3.2756    0.6878 N.2       1 ATP        -0.6280
     25 C5         -3.4079   -2.1580   -0.0391 C.ar      1 ATP         0.2109
     26 C6         -4.4483   -1.9775   -1.0249 C.ar      1 ATP         0.6180
     27 N6         -5.2418   -2.9492   -1.3113 N.2       1 ATP        -0.8319
     28 N1         -4.3937   -0.6823   -1.5211 N.pl3     1 ATP        -0.8664
     29 C2         -3.4770    0.2901   -1.1271 C.ar      1 ATP         0.5952
     30 N3         -2.5289    0.1525   -0.2402 N.2       1 ATP        -0.5599
     31 C4         -2.5564   -1.1096    0.2655 C.ar      1 ATP         0.0076
     32 HOG3       -5.9563    7.4868    1.1573 H         1 ATP         0.4101
     33 H5'1       -1.7771    2.7849    2.1387 H         1 ATP         0.0364
     34 H5'2       -1.1654    2.0541    0.6320 H         1 ATP         0.0364
     35 H4'         0.0403    1.7078    3.4343 H         1 ATP         0.0945
     36 H3'         1.5907    1.4859    1.1353 H         1 ATP         0.0703
     37 HO3'        2.1521    0.9800    3.3017 H         1 ATP         0.4099
     38 H2'        -0.0017    0.0018    0.0005 H         1 ATP         0.0676
     39 HO2'        1.7495   -1.7243    1.4324 H         1 ATP         0.4291
     40 H1'        -0.1998   -1.6319    2.6178 H         1 ATP         0.0950
     41 H8         -1.5740   -3.5449    2.1457 H         1 ATP         0.1135
     42 HN62       -5.9117   -2.6433   -2.0256 H         1 ATP         0.3588
     43 H2         -3.6225    1.2454   -1.6553 H         1 ATP         0.0302
     44 H44        -5.0794   -0.4231   -2.2258 H         1 ATP         0.4215
@<TRIPOS>BOND
     1    1    2 2
     2    1    3 1
     3    1    4 1
     4    1    8 1
     5    4   32 1
     6    5    6 2
     7    5    7 1
     8    5    8 1
     9    5   12 1
    10    9   10 2
    11    9   11 1
    12    9   12 1
    13    9   13 1
    14   13   14 1
    15   14   15 1
    16   14   33 1
    17   14   34 1
    18   15   16 1
    19   15   17 1
    20   15   35 1
    21   16   21 1
    22   17   18 1
    23   17   19 1
    24   17   36 1
    25   18   37 1
    26   19   20 1
    27   19   21 1
    28   19   38 1
    29   20   39 1
    30   21   22 1
    31   21   40 1
    32   22   23 ar
    33   22   31 ar
    34   23   24 ar
    35   23   41 1
    36   24   25 ar
    37   25   26 ar
    38   25   31 ar
    39   26   27 2
    40   26   28 ar
    41   27   42 1
    42   28   29 ar
    43   28   44 1
    44   29   30 ar
    45   29   43 1
    46   30   31 ar
@<TRIPOS>SUBSTRUCTURE
     1 ATP         1 GROUP 0 A     ****
@<TRIPOS>MOLECULE
[[[3,4-dihydroxy-5-(6-imino-1~{H}-purin-9-yl)tetrahydrofuran-2-yl]methoxy-oxido-phosphoryl]oxy-oxido-phosphoryl] hydrogen phosphate
   44    46     1     0     0
SMALL
USER_CHARGES

@<TRIPOS>ATOM
      1 PG          0.6914    2.1626    8.0651 P.3       1 ATP         1.5257
      2 O1G        -0.3401    2.2750    9.1655 O.co2     1 ATP        -0.8737
      3 O2G         1.9909    2.9334    8.1363 O.co2     1 ATP        -0.8737
      4 O3G         1.0373    0.5832    7.8377 O.3       1 ATP        -0.7971
      5 PB         -0.6704    3.8529    6.0572 P.3       1 ATP         1.6824
      6 O1B        -1.8924    4.1965    6.8794 O.co2     1 ATP        -0.8925
      7 O2B         0.4426    4.8561    5.8512 O.co2     1 ATP        -0.8925
      8 O3B        -0.0262    2.4669    6.6312 O.3       1 ATP        -0.8047
      9 PA         -1.9156    4.0918    3.3837 P.3       1 ATP         1.5908
     10 O1A        -0.9829    5.1484    2.8323 O.co2     1 ATP        -0.8932
     11 O2A        -3.3087    4.4562    3.8486 O.co2     1 ATP        -0.8932
     12 O3A        -1.1581    3.3049    4.5989 O.3       1 ATP        -0.8088
     13 O5'        -2.0401    2.8620    2.3128 O.3       1 ATP        -0.5646
     14 C5'        -0.8811    2.4285    1.6206 C.3       1 ATP         0.2204
     15 C4'        -0.1994    1.3333    2.4288 C.3       1 ATP         0.0965
     16 O4'        -1.1285    0.2356    2.5840 O.3       1 ATP        -0.3907
     17 C3'         1.0324    0.7610    1.7344 C.3       1 ATP         0.0763
     18 O3'         1.9175    0.2377    2.7247 O.3       1 ATP        -0.5884
     19 C2'         0.4468   -0.3802    0.9263 C.3       1 ATP         0.0784
     20 O2'         1.3993   -1.3703    0.5961 O.3       1 ATP        -0.6085
     21 C1'        -0.6159   -0.9100    1.8769 C.3       1 ATP         0.2186
     22 N9         -1.7127   -1.6108    1.2130 N.pl3     1 ATP        -0.1699
     23 C8         -2.5485   -1.0808    0.2609 C.ar      1 ATP         0.4438
     24 N7         -3.4476   -1.9486   -0.1593 N.2       1 ATP        -0.6280
     25 C5         -3.1762   -3.0816    0.5530 C.ar      1 ATP         0.2109
     26 C6         -3.8510   -4.3579    0.5006 C.ar      1 ATP         0.6180
     27 N6         -4.8468   -4.5293   -0.2961 N.2       1 ATP        -0.8319
     28 N1         -3.2499   -5.2342    1.3937 N.pl3     1 ATP        -0.8664
     29 C2         -2.1646   -4.9275    2.2116 C.ar      1 ATP         0.5952
     30 N3         -1.5382   -3.7840    2.2778 N.2       1 ATP        -0.5599
     31 C4         -2.1054   -2.9018    1.4120 C.ar      1 ATP         0.0076
     32 HOG3        1.6955    0.3435    7.1510 H         1 ATP         0.4101
     33 H5'1       -1.1767    2.0502    0.6368 H         1 ATP         0.0364
     34 H5'2       -0.2080    3.2814    1.4876 H         1 ATP         0.0364
     35 H4'         0.0403    1.7078    3.4343 H         1 ATP         0.0945
     36 H3'         1.5907    1.4859    1.1353 H         1 ATP         0.0703
     37 HO3'        2.6839   -0.1150    2.2479 H         1 ATP         0.4099
     38 H2'        -0.0017    0.0018    0.0005 H         1 ATP         0.0676
     39 HO2'        1.7495   -1.7243    1.4324 H         1 ATP         0.4291
     40 H1'        -0.1998   -1.6319    2.6178 H         1 ATP         0.0950
     41 H8         -2.4515   -0.0599   -0.0829 H         1 ATP         0.1135
     42 HN62       -5.1990   -5.4882   -0.2005 H         1 ATP         0.3588
     43 H2         -1.8555   -5.7783    2.8388 H         1 ATP         0.0302
     44 H44        -3.6312   -6.1750    1.4526 H         1 ATP         0.4215
@<TRIPOS>BOND
     1    1    2 2
     2    1    3 1
     3    1    4 1
     4    1    8 1
     5    4   32 1
     6    5    6 2
     7    5    7 1
     8    5    8 1
     9    5   12 1
    10    9   10 2
    11    9   11 1
    12    9   12 1
    13    9   13 1
    14   13   14 1
    15   14   15 1
    16   14   33 1
    17   14   34 1
    18   15   16 1
    19   15   17 1
    20   15   35 1
    21   16   21 1
    22   17   18 1
    23   17   19 1
    24   17   36 1
    25   18   37 1
    26   19   20 1
    27   19   21 1
    28   19   38 1
    29   20   39 1
    30   21   22 1
    31   21   40 1
    32   22   23 ar
    33   22   31 ar
    34   23   24 ar
    35   23   41 1
    36   24   25 ar
    37   25   26 ar
    38   25   31 ar
    39   26   27 2
    40   26   28 ar
    41   27   42 1
    42   28   29 ar
    43   28   44 1
    44   29   30 ar
    45   29   43 1
    46   30   31 ar
@<TRIPOS>SUBSTRUCTURE
     1 ATP         1 GROUP 0 A     ****
@<TRIPOS>MOLECULE
[[[3,4-dihydroxy-5-(6-imino-1~{H}-purin-9-yl)tetrahydrofuran-2-yl]methoxy-oxido-phosphoryl]oxy-oxido-phosphoryl] hydrogen phosphate
   44    46     1     0     0
SMALL
USER_CHARGES

@<TRIPOS>ATOM
      1 PG          8.3230    6.0263   -2.1522 P.3       1 ATP         1.5257
      2 O1G         8.6405    6.0933   -3.6294 O.co2     1 ATP        -0.8737
      3 O2G         9.4232    6.0971   -1.1167 O.co2     1 ATP        -0.8737
      4 O3G         7.2125    7.1727   -1.8079 O.3       1 ATP        -0.7971
      5 PB          7.7948    3.1220   -1.9814 P.3       1 ATP         1.6824
      6 O1B         8.0363    2.7879   -3.4366 O.co2     1 ATP        -0.8925
      7 O2B         8.8220    2.7931   -0.9212 O.co2     1 ATP        -0.8925
      8 O3B         7.4101    4.7044   -1.8646 O.3       1 ATP        -0.8047
      9 PA          5.8979    0.9309   -1.3848 P.3       1 ATP         1.5908
     10 O1A         6.6883    0.2943   -0.2622 O.co2     1 ATP        -0.8932
     11 O2A         5.8763    0.3098   -2.7645 O.co2     1 ATP        -0.8932
     12 O3A         6.3576    2.4919   -1.5315 O.3       1 ATP        -0.8088
     13 O5'         4.3516    1.1575   -0.9026 O.3       1 ATP        -0.5646
     14 C5'         4.0922    1.9801    0.2227 C.3       1 ATP         0.2204
     15 C4'         2.5944    2.0310    0.4653 C.3       1 ATP         0.0965
     16 O4'         1.9327    2.5740   -0.6889 O.3       1 ATP        -0.3907
     17 C3'         1.9685    0.6634    0.6767 C.3       1 ATP         0.0763
     18 O3'         2.1425    0.1975    1.9977 O.3       1 ATP        -0.5884
     19 C2'         0.5176    0.9128    0.3099 C.3       1 ATP         0.0784
     20 O2'        -0.2103    1.4454    1.4152 O.3       1 ATP        -0.6085
     21 C1'         0.6219    1.9765   -0.7844 C.3       1 ATP         0.2186
     22 N9          0.4237    1.4496   -2.1357 N.pl3     1 ATP        -0.1699
     23 C8          1.1891    0.4862   -2.7452 C.ar      1 ATP         0.4438
     24 N7          0.7743    0.2113   -3.9661 N.2       1 ATP        -0.6280
     25 C5         -0.3017    1.0326   -4.1458 C.ar      1 ATP         0.2109
     26 C6         -1.1512    1.1578   -5.3076 C.ar      1 ATP         0.6180
     27 N6         -0.9306    0.4354   -6.3493 N.2       1 ATP        -0.8319
     28 N1         -2.1281    2.1133   -5.0636 N.pl3     1 ATP        -0.8664
     29 C2         -2.2653    2.8370   -3.8811 C.ar      1 ATP         0.5952
     30 N3         -1.5123    2.7429   -2.8189 N.2       1 ATP        -0.5599
     31 C4         -0.5429    1.8121   -3.0273 C.ar      1 ATP         0.0076
     32 HOG3        6.9005    7.2573   -0.8818 H         1 ATP         0.4101
     33 H5'1        4.6069    1.5618    1.0936 H         1 ATP         0.0364
     34 H5'2        4.4824    2.9837    0.0254 H         1 ATP         0.0364
     35 H4'         2.3752    2.7029    1.3156 H         1 ATP         0.0945
     36 H3'         2.4336   -0.1217   -0.0015 H         1 ATP         0.0703
     37 HO3'        3.0987    0.1465    2.1461 H         1 ATP         0.4099
     38 H2'         0.0316    0.0155   -0.0339 H         1 ATP         0.0676
     39 HO2'       -0.1608    0.7921    2.1351 H         1 ATP         0.4291
     40 H1'        -0.1474    2.7798   -0.6651 H         1 ATP         0.0950
     41 H8          2.0323    0.0251   -2.2492 H         1 ATP         0.1135
     42 HN62       -1.6261    0.6558   -7.0707 H         1 ATP         0.3588
     43 H2         -3.1123    3.5402   -3.9130 H         1 ATP         0.0302
     44 H44        -2.7975    2.2966   -5.8068 H         1 ATP         0.4215
@<TRIPOS>BOND
     1    1    2 2
     2    1    3 1
     3    1    4 1
     4    1    8 1
     5    4   32 1
     6    5    6 2
     7    5    7 1
     8    5    8 1
     9    5   12 1
    10    9   10 2
    11    9   11 1
    12    9   12 1
    13    9   13 1
    14   13   14 1
    15   14   15 1
    16   14   33 1
    17   14   34 1
    18   15   16 1
    19   15   17 1
    20   15   35 1
    21   16   21 1
    22   17   18 1
    23   17   19 1
    24   17   36 1
    25   18   37 1
    26   19   20 1
    27   19   21 1
    28   19   38 1
    29   20   39 1
    30   21   22 1
    31   21   40 1
    32   22   23 ar
    33   22   31 ar
    34   23   24 ar
    35   23   41 1
    36   24   25 ar
    37   25   26 ar
    38   25   31 ar
    39   26   27 2
    40   26   28 ar
    41   27   42 1
    42   28   29 ar
    43   28   44 1
    44   29   30 ar
    45   29   43 1
    46   30   31 ar
@<TRIPOS>SUBSTRUCTURE
     1 ATP         1 GROUP 0 A     ****
@<TRIPOS>MOLECULE
[[[3,4-dihydroxy-5-(6-imino-1~{H}-purin-9-yl)tetrahydrofuran-2-yl]methoxy-oxido-phosphoryl]oxy-oxido-phosphoryl] hydrogen phosphate
   44    46     1     0     0
SMALL
USER_CHARGES

@<TRIPOS>ATOM
      1 PG         -4.1347    6.0507   -2.7066 P.3       1 ATP         1.5257
      2 O1G        -5.4027    6.2420   -1.9046 O.co2     1 ATP        -0.8737
      3 O2G        -4.1492    5.2897   -4.0137 O.co2     1 ATP        -0.8737
      4 O3G        -3.4595    7.5144   -2.9663 O.3       1 ATP        -0.7971
      5 PB         -1.4007    5.1489   -2.0320 P.3       1 ATP         1.6824
      6 O1B        -1.2786    4.0714   -3.0863 O.co2     1 ATP        -0.8925
      7 O2B        -0.7047    6.4823   -2.1904 O.co2     1 ATP        -0.8925
      8 O3B        -2.9842    5.4166   -1.7381 O.3       1 ATP        -0.8047
      9 PA          0.4528    3.9705   -0.0493 P.3       1 ATP         1.5908
     10 O1A         1.4111    5.1388    0.0343 O.co2     1 ATP        -0.8932
     11 O2A         0.8144    2.7281   -0.8338 O.co2     1 ATP        -0.8932
     12 O3A        -0.9922    4.5136   -0.5848 O.3       1 ATP        -0.8088
     13 O5'         0.0178    3.5131    1.4595 O.3       1 ATP        -0.5646
     14 C5'        -0.8811    2.4285    1.6206 C.3       1 ATP         0.2204
     15 C4'        -0.1994    1.3333    2.4288 C.3       1 ATP         0.0965
     16 O4'        -1.1285    0.2356    2.5840 O.3       1 ATP        -0.3907
     17 C3'         1.0324    0.7610    1.7344 C.3       1 ATP         0.0763
     18 O3'         1.9175    0.2377    2.7247 O.3       1 ATP        -0.5884
     19 C2'         0.4468   -0.3802    0.9263 C.3       1 ATP         0.0784
     20 O2'         1.3993   -1.3703    0.5961 O.3       1 ATP        -0.6085
     21 C1'        -0.6159   -0.9100    1.8769 C.3       1 ATP         0.2186
     22 N9         -1.7127   -1.6108    1.2130 N.pl3     1 ATP        -0.1699
     23 C8         -2.0868   -2.9137    1.4327 C.ar      1 ATP         0.4438
     24 N7         -3.1125   -3.2756    0.6878 N.2       1 ATP        -0.6280
     25 C5         -3.4079   -2.1580   -0.0391 C.ar      1 ATP         0.2109
     26 C6         -4.4483   -1.9775   -1.0249 C.ar      1 ATP         0.6180
     27 N6         -5.2418   -2.9492   -1.3113 N.2       1 ATP        -0.8319
     28 N1         -4.3937   -0.6823   -1.5211 N.pl3     1 ATP        -0.8664
     29 C2         -3.4770    0.2901   -1.1271 C.ar      1 ATP         0.5952
     30 N3         -2.5289    0.1525   -0.2402 N.2       1 ATP        -0.5599
     31 C4         -2.5564   -1.1096    0.2655 C.ar      1 ATP         0.0076
     32 HOG3       -2.6232    7.5588   -3.4771 H         1 ATP         0.4101
     33 H5'1       -1.7771    2.7849    2.1387 H         1 ATP         0.0364
     34 H5'2       -1.1654    2.0541    0.6320 H         1 ATP         0.0364
     35 H4'         0.0403    1.7078    3.4343 H         1 ATP         0.0945
     36 H3'         1.5907    1.4859    1.1353 H         1 ATP         0.0703
     37 HO3'        2.6839   -0.1150    2.2479 H         1 ATP         0.4099
     38 H2'        -0.0017    0.0018    0.0005 H         1 ATP         0.0676
     39 HO2'        0.9369   -2.0558    0.0825 H         1 ATP         0.4291
     40 H1'        -0.1998   -1.6319    2.6178 H         1 ATP         0.0950
     41 H8         -1.5740   -3.5449    2.1457 H         1 ATP         0.1135
     42 HN62       -5.9117   -2.6433   -2.0256 H         1 ATP         0.3588
     43 H2         -3.6225    1.2454   -1.6553 H         1 ATP         0.0302
     44 H44        -5.0794   -0.4231   -2.2258 H         1 ATP         0.4215
@<TRIPOS>BOND
     1    1    2 2
     2    1    3 1
     3    1    4 1
     4    1    8 1
     5    4   32 1
     6    5    6 2
     7    5    7 1
     8    5    8 1
     9    5   12 1
    10    9   10 2
    11    9   11 1
    12    9   12 1
    13    9   13 1
    14   13   14 1
    15   14   15 1
    16   14   33 1
    17   14   34 1
    18   15   16 1
    19   15   17 1
    20   15   35 1
    21   16   21 1
    22   17   18 1
    23   17   19 1
    24   17   36 1
    25   18   37 1
    26   19   20 1
    27   19   21 1
    28   19   38 1
    29   20   39 1
    30   21   22 1
    31   21   40 1
    32   22   23 ar
    33   22   31 ar
    34   23   24 ar
    35   23   41 1
    36   24   25 ar
    37   25   26 ar
    38   25   31 ar
    39   26   27 2
    40   26   28 ar
    41   27   42 1
    42   28   29 ar
    43   28   44 1
    44   29   30 ar
    45   29   43 1
    46   30   31 ar
@<TRIPOS>SUBSTRUCTURE
     1 ATP         1 GROUP 0 A     ****
@<TRIPOS>MOLECULE
[[[3,4-dihydroxy-5-(6-imino-1~{H}-purin-9-yl)tetrahydrofuran-2-yl]methoxy-oxido-phosphoryl]oxy-oxido-phosphoryl] hydrogen phosphate
   44    46     1     0     0
SMALL
USER_CHARGES

@<TRIPOS>ATOM
      1 PG         -4.1355    6.6437   -2.3437 P.3       1 ATP         1.5257
      2 O1G        -2.9186    7.1517   -3.0844 O.co2     1 ATP        -0.8737
      3 O2G        -5.2077    7.5969   -1.8644 O.co2     1 ATP        -0.8737
      4 O3G        -4.8419    5.4791   -3.2440 O.3       1 ATP        -0.7971
      5 PB         -4.5240    4.8101   -0.0567 P.3       1 ATP         1.6824
      6 O1B        -5.3815    5.7240    0.7901 O.co2     1 ATP        -0.8925
      7 O2B        -5.1301    3.6568   -0.8249 O.co2     1 ATP        -0.8925
      8 O3B        -3.6470    5.7225   -1.0881 O.3       1 ATP        -0.8047
      9 PA         -3.3347    3.2338    2.1468 P.3       1 ATP         1.5908
     10 O1A        -3.8074    1.8725    1.6847 O.co2     1 ATP        -0.8932
     11 O2A        -4.0244    3.9450    3.2906 O.co2     1 ATP        -0.8932
     12 O3A        -3.2997    4.2420    0.8615 O.3       1 ATP        -0.8088
     13 O5'        -1.7336    3.1724    2.4750 O.3       1 ATP        -0.5646
     14 C5'        -0.8811    2.4285    1.6206 C.3       1 ATP         0.2204
     15 C4'        -0.1994    1.3333    2.4288 C.3       1 ATP         0.0965
     16 O4'        -1.1285    0.2356    2.5840 O.3       1 ATP        -0.3907
     17 C3'         1.0324    0.7610    1.7344 C.3       1 ATP         0.0763
     18 O3'         1.9175    0.2377    2.7247 O.3       1 ATP        -0.5884
     19 C2'         0.4468   -0.3802    0.9263 C.3       1 ATP         0.0784
     20 O2'         1.3993   -1.3703    0.5961 O.3       1 ATP        -0.6085
     21 C1'        -0.6159   -0.9100    1.8769 C.3       1 ATP         0.2186
     22 N9         -1.7127   -1.6108    1.2130 N.pl3     1 ATP        -0.1699
     23 C8         -2.0868   -2.9137    1.4327 C.ar      1 ATP         0.4438
     24 N7         -3.1125   -3.2756    0.6878 N.2       1 ATP        -0.6280
     25 C5         -3.4079   -2.1580   -0.0391 C.ar      1 ATP         0.2109
     26 C6         -4.4483   -1.9775   -1.0249 C.ar      1 ATP         0.6180
     27 N6         -5.2418   -2.9492   -1.3113 N.2       1 ATP        -0.8319
     28 N1         -4.3937   -0.6823   -1.5211 N.pl3     1 ATP        -0.8664
     29 C2         -3.4770    0.2901   -1.1271 C.ar      1 ATP         0.5952
     30 N3         -2.5289    0.1525   -0.2402 N.2       1 ATP        -0.5599
     31 C4         -2.5564   -1.1096    0.2655 C.ar      1 ATP         0.0076
     32 HOG3       -5.6509    5.0466   -2.8965 H         1 ATP         0.4101
     33 H5'1       -1.4800    1.9927    0.8146 H         1 ATP         0.0364
     34 H5'2       -0.1367    3.1040    1.1872 H         1 ATP         0.0364
     35 H4'         0.0403    1.7078    3.4343 H         1 ATP         0.0945
     36 H3'         1.5907    1.4859    1.1353 H         1 ATP         0.0703
     37 HO3'        2.6839   -0.1150    2.2479 H         1 ATP         0.4099
     38 H2'        -0.0017    0.0018    0.0005 H         1 ATP         0.0676
     39 HO2'        2.0953   -0.9375    0.0709 H         1 ATP         0.4291
     40 H1'        -0.1998   -1.6319    2.6178 H         1 ATP         0.0950
     41 H8         -1.5740   -3.5449    2.1457 H         1 ATP         0.1135
     42 HN62       -5.9117   -2.6433   -2.0256 H         1 ATP         0.3588
     43 H2         -3.6225    1.2454   -1.6553 H         1 ATP         0.0302
     44 H44        -5.0794   -0.4231   -2.2258 H         1 ATP         0.4215
@<TRIPOS>BOND
     1    1    2 2
     2    1    3 1
     3    1    4 1
     4    1    8 1
     5    4   32 1
     6    5    6 2
     7    5    7 1
     8    5    8 1
     9    5   12 1
    10    9   10 2
    11    9   11 1
    12    9   12 1
    13    9   13 1
    14   13   14 1
    15   14   15 1
    16   14   33 1
    17   14   34 1
    18   15   16 1
    19   15   17 1
    20   15   35 1
    21   16   21 1
    22   17   18 1
    23   17   19 1
    24   17   36 1
    25   18   37 1
    26   19   20 1
    27   19   21 1
    28   19   38 1
    29   20   39 1
    30   21   22 1
    31   21   40 1
    32   22   23 ar
    33   22   31 ar
    34   23   24 ar
    35   23   41 1
    36   24   25 ar
    37   25   26 ar
    38   25   31 ar
    39   26   27 2
    40   26   28 ar
    41   27   42 1
    42   28   29 ar
    43   28   44 1
    44   29   30 ar
    45   29   43 1
    46   30   31 ar
@<TRIPOS>SUBSTRUCTURE
     1 ATP         1 GROUP 0 A     ****
@<TRIPOS>MOLECULE
[[[3,4-dihydroxy-5-(6-imino-1~{H}-purin-9-yl)tetrahydrofuran-2-yl]methoxy-oxido-phosphoryl]oxy-oxido-phosphoryl] hydrogen phosphate
   44    46     1     0     0
SMALL
USER_CHARGES

@<TRIPOS>ATOM
      1 PG          3.0207    7.3964    1.7047 P.3       1 ATP         1.5257
      2 O1G         3.0484    8.3864    2.8478 O.co2     1 ATP        -0.8737
      3 O2G         3.0907    7.8653    0.2685 O.co2     1 ATP        -0.8737
      4 O3G         4.1978    6.2912    1.9472 O.3       1 ATP        -0.7971
      5 PB          0.1328    6.7663    1.7829 P.3       1 ATP         1.6824
      6 O1B        -0.2383    7.6674    2.9395 O.co2     1 ATP        -0.8925
      7 O2B        -0.1946    7.1477    0.3563 O.co2     1 ATP        -0.8925
      8 O3B         1.7252    6.4193    1.8796 O.3       1 ATP        -0.8047
      9 PA         -2.0037    4.7528    2.1522 P.3       1 ATP         1.5908
     10 O1A        -2.6322    4.8876    0.7821 O.co2     1 ATP        -0.8932
     11 O2A        -2.6544    5.3785    3.3666 O.co2     1 ATP        -0.8932
     12 O3A        -0.4564    5.2719    2.0738 O.3       1 ATP        -0.8088
     13 O5'        -1.7336    3.1724    2.4750 O.3       1 ATP        -0.5646
     14 C5'        -0.8811    2.4285    1.6206 C.3       1 ATP         0.2204
     15 C4'        -0.1994    1.3333    2.4288 C.3       1 ATP         0.0965
     16 O4'        -1.1285    0.2356    2.5840 O.3       1 ATP        -0.3907
     17 C3'         1.0324    0.7610    1.7344 C.3       1 ATP         0.0763
     18 O3'         1.9175    0.2377    2.7247 O.3       1 ATP        -0.5884
     19 C2'         0.4468   -0.3802    0.9263 C.3       1 ATP         0.0784
     20 O2'         1.3993   -1.3703    0.5961 O.3       1 ATP        -0.6085
     21 C1'        -0.6159   -0.9100    1.8769 C.3       1 ATP         0.2186
     22 N9         -1.7127   -1.6108    1.2130 N.pl3     1 ATP        -0.1699
     23 C8         -3.0370   -1.2489    1.2455 C.ar      1 ATP         0.4438
     24 N7         -3.8008   -2.0709    0.5534 N.2       1 ATP        -0.6280
     25 C5         -2.9295   -2.9976    0.0567 C.ar      1 ATP         0.2109
     26 C6         -3.2152   -4.1411   -0.7786 C.ar      1 ATP         0.6180
     27 N6         -4.4238   -4.3865   -1.1456 N.2       1 ATP        -0.8319
     28 N1         -2.0349   -4.8186   -1.0521 N.pl3     1 ATP        -0.8664
     29 C2         -0.7728   -4.4501   -0.5916 C.ar      1 ATP         0.5952
     30 N3         -0.4885   -3.4234    0.1630 N.2       1 ATP        -0.5599
     31 C4         -1.6274   -2.7377    0.4492 C.ar      1 ATP         0.0076
     32 HOG3        4.3094    5.5752    1.2860 H         1 ATP         0.4101
     33 H5'1       -1.4800    1.9927    0.8146 H         1 ATP         0.0364
     34 H5'2       -0.1367    3.1040    1.1872 H         1 ATP         0.0364
     35 H4'         0.0403    1.7078    3.4343 H         1 ATP         0.0945
     36 H3'         1.5907    1.4859    1.1353 H         1 ATP         0.0703
     37 HO3'        2.6839   -0.1150    2.2479 H         1 ATP         0.4099
     38 H2'        -0.0017    0.0018    0.0005 H         1 ATP         0.0676
     39 HO2'        2.0953   -0.9375    0.0709 H         1 ATP         0.4291
     40 H1'        -0.1998   -1.6319    2.6178 H         1 ATP         0.0950
     41 H8         -3.3806   -0.3795    1.7893 H         1 ATP         0.1135
     42 HN62       -4.4384   -5.2300   -1.7295 H         1 ATP         0.3588
     43 H2          0.0180   -5.1355   -0.9348 H         1 ATP         0.0302
     44 H44        -2.0977   -5.6477   -1.6374 H         1 ATP         0.4215
@<TRIPOS>BOND
     1    1    2 2
     2    1    3 1
     3    1    4 1
     4    1    8 1
     5    4   32 1
     6    5    6 2
     7    5    7 1
     8    5    8 1
     9    5   12 1
    10    9   10 2
    11    9   11 1
    12    9   12 1
    13    9   13 1
    14   13   14 1
    15   14   15 1
    16   14   33 1
    17   14   34 1
    18   15   16 1
    19   15   17 1
    20   15   35 1
    21   16   21 1
    22   17   18 1
    23   17   19 1
    24   17   36 1
    25   18   37 1
    26   19   20 1
    27   19   21 1
    28   19   38 1
    29   20   39 1
    30   21   22 1
    31   21   40 1
    32   22   23 ar
    33   22   31 ar
    34   23   24 ar
    35   23   41 1
    36   24   25 ar
    37   25   26 ar
    38   25   31 ar
    39   26   27 2
    40   26   28 ar
    41   27   42 1
    42   28   29 ar
    43   28   44 1
    44   29   30 ar
    45   29   43 1
    46   30   31 ar
@<TRIPOS>SUBSTRUCTURE
     1 ATP         1 GROUP 0 A     ****
@<TRIPOS>MOLECULE
[[[3,4-dihydroxy-5-(6-imino-1~{H}-purin-9-yl)tetrahydrofuran-2-yl]methoxy-oxido-phosphoryl]oxy-oxido-phosphoryl] hydrogen phosphate
   44    46     1     0     0
SMALL
USER_CHARGES

@<TRIPOS>ATOM
      1 PG          9.6304    3.0368   -1.9013 P.3       1 ATP         1.5257
      2 O1G        10.2301    2.5899   -3.2159 O.co2     1 ATP        -0.8737
      3 O2G         9.6905    2.1494   -0.6779 O.co2     1 ATP        -0.8737
      4 O3G        10.2553    4.4949   -1.5152 O.3       1 ATP        -0.7971
      5 PB          6.7867    2.5947   -2.5807 P.3       1 ATP         1.6824
      6 O1B         5.5517    3.4651   -2.5126 O.co2     1 ATP        -0.8925
      7 O2B         7.1288    1.8168   -3.8319 O.co2     1 ATP        -0.8925
      8 O3B         8.0824    3.4901   -2.1504 O.3       1 ATP        -0.8047
      9 PA          5.7602    0.3298   -0.9771 P.3       1 ATP         1.5908
     10 O1A         6.0971   -0.2172    0.3932 O.co2     1 ATP        -0.8932
     11 O2A         5.7087   -0.5828   -2.1830 O.co2     1 ATP        -0.8932
     12 O3A         6.7733    1.5672   -1.3123 O.3       1 ATP        -0.8088
     13 O5'         4.3516    1.1575   -0.9026 O.3       1 ATP        -0.5646
     14 C5'         4.0922    1.9801    0.2227 C.3       1 ATP         0.2204
     15 C4'         2.5944    2.0310    0.4653 C.3       1 ATP         0.0965
     16 O4'         1.9327    2.5740   -0.6889 O.3       1 ATP        -0.3907
     17 C3'         1.9685    0.6634    0.6767 C.3       1 ATP         0.0763
     18 O3'         2.1425    0.1975    1.9977 O.3       1 ATP        -0.5884
     19 C2'         0.5176    0.9128    0.3099 C.3       1 ATP         0.0784
     20 O2'        -0.2103    1.4454    1.4152 O.3       1 ATP        -0.6085
     21 C1'         0.6219    1.9765   -0.7844 C.3       1 ATP         0.2186
     22 N9          0.4237    1.4496   -2.1357 N.pl3     1 ATP        -0.1699
     23 C8          1.4069    0.9710   -2.9662 C.ar      1 ATP         0.4438
     24 N7          0.9316    0.5623   -4.1260 N.2       1 ATP        -0.6280
     25 C5         -0.4120    0.7884   -4.0344 C.ar      1 ATP         0.2109
     26 C6         -1.4353    0.5283   -5.0204 C.ar      1 ATP         0.6180
     27 N6         -1.1199    0.0176   -6.1586 N.2       1 ATP        -0.8319
     28 N1         -2.6704    0.9095   -4.5147 N.pl3     1 ATP        -0.8664
     29 C2         -2.8863    1.4571   -3.2520 C.ar      1 ATP         0.5952
     30 N3         -1.9805    1.7017   -2.3442 N.2       1 ATP        -0.5599
     31 C4         -0.7561    1.3381   -2.8112 C.ar      1 ATP         0.0076
     32 HOG3        9.9627    4.9226   -0.6823 H         1 ATP         0.4101
     33 H5'1        4.6069    1.5618    1.0936 H         1 ATP         0.0364
     34 H5'2        4.4824    2.9837    0.0254 H         1 ATP         0.0364
     35 H4'         2.3752    2.7029    1.3156 H         1 ATP         0.0945
     36 H3'         2.4336   -0.1217   -0.0015 H         1 ATP         0.0703
     37 HO3'        3.0987    0.1465    2.1461 H         1 ATP         0.4099
     38 H2'         0.0316    0.0155   -0.0339 H         1 ATP         0.0676
     39 HO2'       -0.1608    0.7921    2.1351 H         1 ATP         0.4291
     40 H1'        -0.1474    2.7798   -0.6651 H         1 ATP         0.0950
     41 H8          2.4466    0.9468   -2.6694 H         1 ATP         0.1135
     42 HN62       -1.9661   -0.0965   -6.7275 H         1 ATP         0.3588
     43 H2         -3.9481    1.6825   -3.0660 H         1 ATP         0.0302
     44 H44        -3.4814    0.7753   -5.1133 H         1 ATP         0.4215
@<TRIPOS>BOND
     1    1    2 2
     2    1    3 1
     3    1    4 1
     4    1    8 1
     5    4   32 1
     6    5    6 2
     7    5    7 1
     8    5    8 1
     9    5   12 1
    10    9   10 2
    11    9   11 1
    12    9   12 1
    13    9   13 1
    14   13   14 1
    15   14   15 1
    16   14   33 1
    17   14   34 1
    18   15   16 1
    19   15   17 1
    20   15   35 1
    21   16   21 1
    22   17   18 1
    23   17   19 1
    24   17   36 1
    25   18   37 1
    26   19   20 1
    27   19   21 1
    28   19   38 1
    29   20   39 1
    30   21   22 1
    31   21   40 1
    32   22   23 ar
    33   22   31 ar
    34   23   24 ar
    35   23   41 1
    36   24   25 ar
    37   25   26 ar
    38   25   31 ar
    39   26   27 2
    40   26   28 ar
    41   27   42 1
    42   28   29 ar
    43   28   44 1
    44   29   30 ar
    45   29   43 1
    46   30   31 ar
@<TRIPOS>SUBSTRUCTURE
     1 ATP         1 GROUP 0 A     ****
@<TRIPOS>MOLECULE
[[[3,4-dihydroxy-5-(6-imino-1~{H}-purin-9-yl)tetrahydrofuran-2-yl]methoxy-oxido-phosphoryl]oxy-oxido-phosphoryl] hydrogen phosphate
   44    46     1     0     0
SMALL
USER_CHARGES

@<TRIPOS>ATOM
      1 PG         -1.8359    7.8595   -1.5196 P.3       1 ATP         1.5257
      2 O1G        -2.4360    7.6017   -2.8837 O.co2     1 ATP        -0.8737
      3 O2G        -0.4007    8.3145   -1.3752 O.co2     1 ATP        -0.8737
      4 O3G        -2.7960    8.9112   -0.7208 O.3       1 ATP        -0.7971
      5 PB         -3.4496    5.7424   -0.2322 P.3       1 ATP         1.6824
      6 O1B        -4.3431    6.6434    0.5909 O.co2     1 ATP        -0.8925
      7 O2B        -3.9546    5.0795   -1.4943 O.co2     1 ATP        -0.8925
      8 O3B        -2.0718    6.5468   -0.5788 O.3       1 ATP        -0.8047
      9 PA         -2.0037    4.7528    2.1522 P.3       1 ATP         1.5908
     10 O1A        -2.9381    5.3281    3.1945 O.co2     1 ATP        -0.8932
     11 O2A        -0.6722    5.4096    1.8602 O.co2     1 ATP        -0.8932
     12 O3A        -2.8191    4.5967    0.7449 O.3       1 ATP        -0.8088
     13 O5'        -1.7336    3.1724    2.4750 O.3       1 ATP        -0.5646
     14 C5'        -0.8811    2.4285    1.6206 C.3       1 ATP         0.2204
     15 C4'        -0.1994    1.3333    2.4288 C.3       1 ATP         0.0965
     16 O4'        -1.1285    0.2356    2.5840 O.3       1 ATP        -0.3907
     17 C3'         1.0324    0.7610    1.7344 C.3       1 ATP         0.0763
     18 O3'         1.9175    0.2377    2.7247 O.3       1 ATP        -0.5884
     19 C2'         0.4468   -0.3802    0.9263 C.3       1 ATP         0.0784
     20 O2'         1.3993   -1.3703    0.5961 O.3       1 ATP        -0.6085
     21 C1'        -0.6159   -0.9100    1.8769 C.3       1 ATP         0.2186
     22 N9         -1.7127   -1.6108    1.2130 N.pl3     1 ATP        -0.1699
     23 C8         -3.0370   -1.2489    1.2455 C.ar      1 ATP         0.4438
     24 N7         -3.8008   -2.0709    0.5534 N.2       1 ATP        -0.6280
     25 C5         -2.9295   -2.9976    0.0567 C.ar      1 ATP         0.2109
     26 C6         -3.2152   -4.1411   -0.7786 C.ar      1 ATP         0.6180
     27 N6         -4.4238   -4.3865   -1.1456 N.2       1 ATP        -0.8319
     28 N1         -2.0349   -4.8186   -1.0521 N.pl3     1 ATP        -0.8664
     29 C2         -0.7728   -4.4501   -0.5916 C.ar      1 ATP         0.5952
     30 N3         -0.4885   -3.4234    0.1630 N.2       1 ATP        -0.5599
     31 C4         -1.6274   -2.7377    0.4492 C.ar      1 ATP         0.0076
     32 HOG3       -2.5396    9.1809    0.1868 H         1 ATP         0.4101
     33 H5'1       -1.4800    1.9927    0.8146 H         1 ATP         0.0364
     34 H5'2       -0.1367    3.1040    1.1872 H         1 ATP         0.0364
     35 H4'         0.0403    1.7078    3.4343 H         1 ATP         0.0945
     36 H3'         1.5907    1.4859    1.1353 H         1 ATP         0.0703
     37 HO3'        2.6839   -0.1150    2.2479 H         1 ATP         0.4099
     38 H2'        -0.0017    0.0018    0.0005 H         1 ATP         0.0676
     39 HO2'        2.0953   -0.9375    0.0709 H         1 ATP         0.4291
     40 H1'        -0.1998   -1.6319    2.6178 H         1 ATP         0.0950
     41 H8         -3.3806   -0.3795    1.7893 H         1 ATP         0.1135
     42 HN62       -4.4384   -5.2300   -1.7295 H         1 ATP         0.3588
     43 H2          0.0180   -5.1355   -0.9348 H         1 ATP         0.0302
     44 H44        -2.0977   -5.6477   -1.6374 H         1 ATP         0.4215
@<TRIPOS>BOND
     1    1    2 2
     2    1    3 1
     3    1    4 1
     4    1    8 1
     5    4   32 1
     6    5    6 2
     7    5    7 1
     8    5    8 1
     9    5   12 1
    10    9   10 2
    11    9   11 1
    12    9   12 1
    13    9   13 1
    14   13   14 1
    15   14   15 1
    16   14   33 1
    17   14   34 1
    18   15   16 1
    19   15   17 1
    20   15   35 1
    21   16   21 1
    22   17   18 1
    23   17   19 1
    24   17   36 1
    25   18   37 1
    26   19   20 1
    27   19   21 1
    28   19   38 1
    29   20   39 1
    30   21   22 1
    31   21   40 1
    32   22   23 ar
    33   22   31 ar
    34   23   24 ar
    35   23   41 1
    36   24   25 ar
    37   25   26 ar
    38   25   31 ar
    39   26   27 2
    40   26   28 ar
    41   27   42 1
    42   28   29 ar
    43   28   44 1
    44   29   30 ar
    45   29   43 1
    46   30   31 ar
@<TRIPOS>SUBSTRUCTURE
     1 ATP         1 GROUP 0 A     ****
@<TRIPOS>MOLECULE
[[[3,4-dihydroxy-5-(6-imino-1~{H}-purin-9-yl)tetrahydrofuran-2-yl]methoxy-oxido-phosphoryl]oxy-oxido-phosphoryl] hydrogen phosphate
   44    46     1     0     0
SMALL
USER_CHARGES

@<TRIPOS>ATOM
      1 PG         10.5195    4.8130   -0.5588 P.3       1 ATP         1.5257
      2 O1G        10.9999    4.6856   -1.9872 O.co2     1 ATP        -0.8737
      3 O2G        11.3678    4.3223    0.5933 O.co2     1 ATP        -0.8737
      4 O3G        10.1218    6.3723   -0.2824 O.3       1 ATP        -0.7971
      5 PB          8.5611    2.5977   -0.5896 P.3       1 ATP         1.6824
      6 O1B         8.7688    2.1659   -2.0241 O.co2     1 ATP        -0.8925
      7 O2B         9.1397    1.8024    0.5595 O.co2     1 ATP        -0.8925
      8 O3B         9.0313    4.1539   -0.4381 O.3       1 ATP        -0.8047
      9 PA          6.1805    3.4023    0.9725 P.3       1 ATP         1.5908
     10 O1A         6.5375    4.8651    1.1250 O.co2     1 ATP        -0.8932
     11 O2A         6.3658    2.4369    2.1228 O.co2     1 ATP        -0.8932
     12 O3A         6.9625    2.8039   -0.3314 O.3       1 ATP        -0.8088
     13 O5'         4.6405    3.2699    0.4378 O.3       1 ATP        -0.5646
     14 C5'         4.0922    1.9801    0.2227 C.3       1 ATP         0.2204
     15 C4'         2.5944    2.0310    0.4653 C.3       1 ATP         0.0965
     16 O4'         1.9327    2.5740   -0.6889 O.3       1 ATP        -0.3907
     17 C3'         1.9685    0.6634    0.6767 C.3       1 ATP         0.0763
     18 O3'         2.1425    0.1975    1.9977 O.3       1 ATP        -0.5884
     19 C2'         0.5176    0.9128    0.3099 C.3       1 ATP         0.0784
     20 O2'        -0.2103    1.4454    1.4152 O.3       1 ATP        -0.6085
     21 C1'         0.6219    1.9765   -0.7844 C.3       1 ATP         0.2186
     22 N9          0.4237    1.4496   -2.1357 N.pl3     1 ATP        -0.1699
     23 C8          1.4069    0.9710   -2.9662 C.ar      1 ATP         0.4438
     24 N7          0.9316    0.5623   -4.1260 N.2       1 ATP        -0.6280
     25 C5         -0.4120    0.7884   -4.0344 C.ar      1 ATP         0.2109
     26 C6         -1.4353    0.5283   -5.0204 C.ar      1 ATP         0.6180
     27 N6         -1.1199    0.0176   -6.1586 N.2       1 ATP        -0.8319
     28 N1         -2.6704    0.9095   -4.5147 N.pl3     1 ATP        -0.8664
     29 C2         -2.8863    1.4571   -3.2520 C.ar      1 ATP         0.5952
     30 N3         -1.9805    1.7017   -2.3442 N.2       1 ATP        -0.5599
     31 C4         -0.7561    1.3381   -2.8112 C.ar      1 ATP         0.0076
     32 HOG3        9.7895    6.6188    0.6070 H         1 ATP         0.4101
     33 H5'1        4.3028    1.6728   -0.8066 H         1 ATP         0.0364
     34 H5'2        4.5677    1.2738    0.9106 H         1 ATP         0.0364
     35 H4'         2.3752    2.7029    1.3156 H         1 ATP         0.0945
     36 H3'         2.4336   -0.1217   -0.0015 H         1 ATP         0.0703
     37 HO3'        3.0987    0.1465    2.1461 H         1 ATP         0.4099
     38 H2'         0.0316    0.0155   -0.0339 H         1 ATP         0.0676
     39 HO2'       -0.1608    0.7921    2.1351 H         1 ATP         0.4291
     40 H1'        -0.1474    2.7798   -0.6651 H         1 ATP         0.0950
     41 H8          2.4466    0.9468   -2.6694 H         1 ATP         0.1135
     42 HN62       -1.9661   -0.0965   -6.7275 H         1 ATP         0.3588
     43 H2         -3.9481    1.6825   -3.0660 H         1 ATP         0.0302
     44 H44        -3.4814    0.7753   -5.1133 H         1 ATP         0.4215
@<TRIPOS>BOND
     1    1    2 2
     2    1    3 1
     3    1    4 1
     4    1    8 1
     5    4   32 1
     6    5    6 2
     7    5    7 1
     8    5    8 1
     9    5   12 1
    10    9   10 2
    11    9   11 1
    12    9   12 1
    13    9   13 1
    14   13   14 1
    15   14   15 1
    16   14   33 1
    17   14   34 1
    18   15   16 1
    19   15   17 1
    20   15   35 1
    21   16   21 1
    22   17   18 1
    23   17   19 1
    24   17   36 1
    25   18   37 1
    26   19   20 1
    27   19   21 1
    28   19   38 1
    29   20   39 1
    30   21   22 1
    31   21   40 1
    32   22   23 ar
    33   22   31 ar
    34   23   24 ar
    35   23   41 1
    36   24   25 ar
    37   25   26 ar
    38   25   31 ar
    39   26   27 2
    40   26   28 ar
    41   27   42 1
    42   28   29 ar
    43   28   44 1
    44   29   30 ar
    45   29   43 1
    46   30   31 ar
@<TRIPOS>SUBSTRUCTURE
     1 ATP         1 GROUP 0 A     ****
@<TRIPOS>MOLECULE
[[[3,4-dihydroxy-5-(6-imino-1~{H}-purin-9-yl)tetrahydrofuran-2-yl]methoxy-oxido-phosphoryl]oxy-oxido-phosphoryl] hydrogen phosphate
   44    46     1     0     0
SMALL
USER_CHARGES

@<TRIPOS>ATOM
      1 PG          1.2720    6.0546    6.4084 P.3       1 ATP         1.5257
      2 O1G         1.9143    7.0458    5.4637 O.co2     1 ATP        -0.8737
      3 O2G         2.1063    5.2679    7.3947 O.co2     1 ATP        -0.8737
      4 O3G         0.0813    6.8150    7.2271 O.3       1 ATP        -0.7971
      5 PB         -0.6704    3.8529    6.0572 P.3       1 ATP         1.6824
      6 O1B         0.1311    2.7671    6.7399 O.co2     1 ATP        -0.8925
      7 O2B        -1.8455    4.5100    6.7464 O.co2     1 ATP        -0.8925
      8 O3B         0.3542    5.0167    5.5458 O.3       1 ATP        -0.8047
      9 PA         -1.9156    4.0918    3.3837 P.3       1 ATP         1.5908
     10 O1A        -0.9829    5.1484    2.8323 O.co2     1 ATP        -0.8932
     11 O2A        -3.3087    4.4562    3.8486 O.co2     1 ATP        -0.8932
     12 O3A        -1.1581    3.3049    4.5989 O.3       1 ATP        -0.8088
     13 O5'        -2.0401    2.8620    2.3128 O.3       1 ATP        -0.5646
     14 C5'        -0.8811    2.4285    1.6206 C.3       1 ATP         0.2204
     15 C4'        -0.1994    1.3333    2.4288 C.3       1 ATP         0.0965
     16 O4'        -1.1285    0.2356    2.5840 O.3       1 ATP        -0.3907
     17 C3'         1.0324    0.7610    1.7344 C.3       1 ATP         0.0763
     18 O3'         1.9175    0.2377    2.7247 O.3       1 ATP        -0.5884
     19 C2'         0.4468   -0.3802    0.9263 C.3       1 ATP         0.0784
     20 O2'         1.3993   -1.3703    0.5961 O.3       1 ATP        -0.6085
     21 C1'        -0.6159   -0.9100    1.8769 C.3       1 ATP         0.2186
     22 N9         -1.7127   -1.6108    1.2130 N.pl3     1 ATP        -0.1699
     23 C8         -1.7690   -2.9583    0.9549 C.ar      1 ATP         0.4438
     24 N7         -2.8827   -3.3076    0.3418 N.2       1 ATP        -0.6280
     25 C5         -3.5683   -2.1351    0.2017 C.ar      1 ATP         0.2109
     26 C6         -4.8617   -1.9185   -0.4044 C.ar      1 ATP         0.6180
     27 N6         -5.5166   -2.9094   -0.8993 N.2       1 ATP        -0.8319
     28 N1         -5.1837   -0.5701   -0.3344 N.pl3     1 ATP        -0.8664
     29 C2         -4.3821    0.4180    0.2330 C.ar      1 ATP         0.5952
     30 N3         -3.2117    0.2488    0.7860 N.2       1 ATP        -0.5599
     31 C4         -2.8672   -1.0657    0.7327 C.ar      1 ATP         0.0076
     32 HOG3       -0.4348    6.3015    7.8845 H         1 ATP         0.4101
     33 H5'1       -1.1767    2.0502    0.6368 H         1 ATP         0.0364
     34 H5'2       -0.2080    3.2814    1.4876 H         1 ATP         0.0364
     35 H4'         0.0403    1.7078    3.4343 H         1 ATP         0.0945
     36 H3'         1.5907    1.4859    1.1353 H         1 ATP         0.0703
     37 HO3'        2.6839   -0.1150    2.2479 H         1 ATP         0.4099
     38 H2'        -0.0017    0.0018    0.0005 H         1 ATP         0.0676
     39 HO2'        2.0953   -0.9375    0.0709 H         1 ATP         0.4291
     40 H1'        -0.1998   -1.6319    2.6178 H         1 ATP         0.0950
     41 H8         -0.9697   -3.6300    1.2371 H         1 ATP         0.1135
     42 HN62       -6.4060   -2.5723   -1.2840 H         1 ATP         0.3588
     43 H2         -4.8409    1.4176    0.1757 H         1 ATP         0.0302
     44 H44        -6.0768   -0.2826   -0.7263 H         1 ATP         0.4215
@<TRIPOS>BOND
     1    1    2 2
     2    1    3 1
     3    1    4 1
     4    1    8 1
     5    4   32 1
     6    5    6 2
     7    5    7 1
     8    5    8 1
     9    5   12 1
    10    9   10 2
    11    9   11 1
    12    9   12 1
    13    9   13 1
    14   13   14 1
    15   14   15 1
    16   14   33 1
    17   14   34 1
    18   15   16 1
    19   15   17 1
    20   15   35 1
    21   16   21 1
    22   17   18 1
    23   17   19 1
    24   17   36 1
    25   18   37 1
    26   19   20 1
    27   19   21 1
    28   19   38 1
    29   20   39 1
    30   21   22 1
    31   21   40 1
    32   22   23 ar
    33   22   31 ar
    34   23   24 ar
    35   23   41 1
    36   24   25 ar
    37   25   26 ar
    38   25   31 ar
    39   26   27 2
    40   26   28 ar
    41   27   42 1
    42   28   29 ar
    43   28   44 1
    44   29   30 ar
    45   29   43 1
    46   30   31 ar
@<TRIPOS>SUBSTRUCTURE
     1 ATP         1 GROUP 0 A     ****
@<TRIPOS>MOLECULE
[[[3,4-dihydroxy-5-(6-imino-1~{H}-purin-9-yl)tetrahydrofuran-2-yl]methoxy-oxido-phosphoryl]oxy-oxido-phosphoryl] hydrogen phosphate
   44    46     1     0     0
SMALL
USER_CHARGES

@<TRIPOS>ATOM
      1 PG         -7.1387    5.4575    0.0317 P.3       1 ATP         1.5257
      2 O1G        -7.8400    5.8119    1.3240 O.co2     1 ATP        -0.8737
      3 O2G        -7.8066    4.5735   -0.9980 O.co2     1 ATP        -0.8737
      4 O3G        -6.6678    6.8397   -0.6988 O.3       1 ATP        -0.7971
      5 PB         -4.4385    4.4456   -0.6228 P.3       1 ATP         1.6824
      6 O1B        -4.8654    3.2632   -1.4638 O.co2     1 ATP        -0.8925
      7 O2B        -3.9005    5.7071   -1.2607 O.co2     1 ATP        -0.8925
      8 O3B        -5.6651    4.8467    0.3772 O.3       1 ATP        -0.8047
      9 PA         -3.5002    2.7198    1.5899 P.3       1 ATP         1.5908
     10 O1A        -3.5694    1.4028    0.8475 O.co2     1 ATP        -0.8932
     11 O2A        -4.5647    3.0969    2.5970 O.co2     1 ATP        -0.8932
     12 O3A        -3.3718    3.9308    0.5005 O.3       1 ATP        -0.8088
     13 O5'        -2.0401    2.8620    2.3128 O.3       1 ATP        -0.5646
     14 C5'        -0.8811    2.4285    1.6206 C.3       1 ATP         0.2204
     15 C4'        -0.1994    1.3333    2.4288 C.3       1 ATP         0.0965
     16 O4'        -1.1285    0.2356    2.5840 O.3       1 ATP        -0.3907
     17 C3'         1.0324    0.7610    1.7344 C.3       1 ATP         0.0763
     18 O3'         1.9175    0.2377    2.7247 O.3       1 ATP        -0.5884
     19 C2'         0.4468   -0.3802    0.9263 C.3       1 ATP         0.0784
     20 O2'         1.3993   -1.3703    0.5961 O.3       1 ATP        -0.6085
     21 C1'        -0.6159   -0.9100    1.8769 C.3       1 ATP         0.2186
     22 N9         -1.7127   -1.6108    1.2130 N.pl3     1 ATP        -0.1699
     23 C8         -1.6202   -2.3321    0.0482 C.ar      1 ATP         0.4438
     24 N7         -2.7754   -2.8539   -0.3142 N.2       1 ATP        -0.6280
     25 C5         -3.6439   -2.4502    0.6592 C.ar      1 ATP         0.2109
     26 C6         -5.0563   -2.7308    0.7745 C.ar      1 ATP         0.6180
     27 N6         -5.6468   -3.4480   -0.1158 N.2       1 ATP        -0.8319
     28 N1         -5.5549   -2.1241    1.9191 N.pl3     1 ATP        -0.8664
     29 C2         -4.8068   -1.3637    2.8153 C.ar      1 ATP         0.5952
     30 N3         -3.5318   -1.0957    2.7338 N.2       1 ATP        -0.5599
     31 C4         -3.0130   -1.6778    1.6196 C.ar      1 ATP         0.0076
     32 HOG3       -6.1946    6.7771   -1.5558 H         1 ATP         0.4101
     33 H5'1       -1.1767    2.0502    0.6368 H         1 ATP         0.0364
     34 H5'2       -0.2080    3.2814    1.4876 H         1 ATP         0.0364
     35 H4'         0.0403    1.7078    3.4343 H         1 ATP         0.0945
     36 H3'         1.5907    1.4859    1.1353 H         1 ATP         0.0703
     37 HO3'        2.6839   -0.1150    2.2479 H         1 ATP         0.4099
     38 H2'        -0.0017    0.0018    0.0005 H         1 ATP         0.0676
     39 HO2'        2.0953   -0.9375    0.0709 H         1 ATP         0.4291
     40 H1'        -0.1998   -1.6319    2.6178 H         1 ATP         0.0950
     41 H8         -0.6865   -2.4395   -0.4871 H         1 ATP         0.1135
     42 HN62       -6.6394   -3.5426    0.1257 H         1 ATP         0.3588
     43 H2         -5.4125   -0.9811    3.6517 H         1 ATP         0.0302
     44 H44        -6.5442   -2.2475    2.1195 H         1 ATP         0.4215
@<TRIPOS>BOND
     1    1    2 2
     2    1    3 1
     3    1    4 1
     4    1    8 1
     5    4   32 1
     6    5    6 2
     7    5    7 1
     8    5    8 1
     9    5   12 1
    10    9   10 2
    11    9   11 1
    12    9   12 1
    13    9   13 1
    14   13   14 1
    15   14   15 1
    16   14   33 1
    17   14   34 1
    18   15   16 1
    19   15   17 1
    20   15   35 1
    21   16   21 1
    22   17   18 1
    23   17   19 1
    24   17   36 1
    25   18   37 1
    26   19   20 1
    27   19   21 1
    28   19   38 1
    29   20   39 1
    30   21   22 1
    31   21   40 1
    32   22   23 ar
    33   22   31 ar
    34   23   24 ar
    35   23   41 1
    36   24   25 ar
    37   25   26 ar
    38   25   31 ar
    39   26   27 2
    40   26   28 ar
    41   27   42 1
    42   28   29 ar
    43   28   44 1
    44   29   30 ar
    45   29   43 1
    46   30   31 ar
@<TRIPOS>SUBSTRUCTURE
     1 ATP         1 GROUP 0 A     ****
@<TRIPOS>MOLECULE
[[[3,4-dihydroxy-5-(6-imino-1~{H}-purin-9-yl)tetrahydrofuran-2-yl]methoxy-oxido-phosphoryl]oxy-oxido-phosphoryl] hydrogen phosphate
   44    46     1     0     0
SMALL
USER_CHARGES

@<TRIPOS>ATOM
      1 PG         -3.2243    8.6943    3.8995 P.3       1 ATP         1.5257
      2 O1G        -3.3629    9.6724    2.7542 O.co2     1 ATP        -0.8737
      3 O2G        -2.4240    9.0498    5.1327 O.co2     1 ATP        -0.8737
      4 O3G        -4.7177    8.2283    4.3672 O.3       1 ATP        -0.7971
      5 PB         -1.2528    6.8802    2.6483 P.3       1 ATP         1.6824
      6 O1B        -1.1212    7.6063    1.3281 O.co2     1 ATP        -0.8925
      7 O2B        -0.1811    6.9853    3.7103 O.co2     1 ATP        -0.8925
      8 O3B        -2.6916    7.2659    3.3167 O.3       1 ATP        -0.8047
      9 PA         -1.9156    4.0918    3.3837 P.3       1 ATP         1.5908
     10 O1A        -3.2735    4.3719    3.9903 O.co2     1 ATP        -0.8932
     11 O2A        -0.7136    3.8310    4.2651 O.co2     1 ATP        -0.8932
     12 O3A        -1.5422    5.3014    2.3507 O.3       1 ATP        -0.8088
     13 O5'        -2.0401    2.8620    2.3128 O.3       1 ATP        -0.5646
     14 C5'        -0.8811    2.4285    1.6206 C.3       1 ATP         0.2204
     15 C4'        -0.1994    1.3333    2.4288 C.3       1 ATP         0.0965
     16 O4'        -1.1285    0.2356    2.5840 O.3       1 ATP        -0.3907
     17 C3'         1.0324    0.7610    1.7344 C.3       1 ATP         0.0763
     18 O3'         1.9175    0.2377    2.7247 O.3       1 ATP        -0.5884
     19 C2'         0.4468   -0.3802    0.9263 C.3       1 ATP         0.0784
     20 O2'         1.3993   -1.3703    0.5961 O.3       1 ATP        -0.6085
     21 C1'        -0.6159   -0.9100    1.8769 C.3       1 ATP         0.2186
     22 N9         -1.7127   -1.6108    1.2130 N.pl3     1 ATP        -0.1699
     23 C8         -2.0868   -2.9137    1.4327 C.ar      1 ATP         0.4438
     24 N7         -3.1125   -3.2756    0.6878 N.2       1 ATP        -0.6280
     25 C5         -3.4079   -2.1580   -0.0391 C.ar      1 ATP         0.2109
     26 C6         -4.4483   -1.9775   -1.0249 C.ar      1 ATP         0.6180
     27 N6         -5.2418   -2.9492   -1.3113 N.2       1 ATP        -0.8319
     28 N1         -4.3937   -0.6823   -1.5211 N.pl3     1 ATP        -0.8664
     29 C2         -3.4770    0.2901   -1.1271 C.ar      1 ATP         0.5952
     30 N3         -2.5289    0.1525   -0.2402 N.2       1 ATP        -0.5599
     31 C4         -2.5564   -1.1096    0.2655 C.ar      1 ATP         0.0076
     32 HOG3       -4.7970    7.5892    5.1071 H         1 ATP         0.4101
     33 H5'1       -1.1767    2.0502    0.6368 H         1 ATP         0.0364
     34 H5'2       -0.2080    3.2814    1.4876 H         1 ATP         0.0364
     35 H4'         0.0403    1.7078    3.4343 H         1 ATP         0.0945
     36 H3'         1.5907    1.4859    1.1353 H         1 ATP         0.0703
     37 HO3'        2.6839   -0.1150    2.2479 H         1 ATP         0.4099
     38 H2'        -0.0017    0.0018    0.0005 H         1 ATP         0.0676
     39 HO2'        0.9369   -2.0558    0.0825 H         1 ATP         0.4291
     40 H1'        -0.1998   -1.6319    2.6178 H         1 ATP         0.0950
     41 H8         -1.5740   -3.5449    2.1457 H         1 ATP         0.1135
     42 HN62       -5.9117   -2.6433   -2.0256 H         1 ATP         0.3588
     43 H2         -3.6225    1.2454   -1.6553 H         1 ATP         0.0302
     44 H44        -5.0794   -0.4231   -2.2258 H         1 ATP         0.4215
@<TRIPOS>BOND
     1    1    2 2
     2    1    3 1
     3    1    4 1
     4    1    8 1
     5    4   32 1
     6    5    6 2
     7    5    7 1
     8    5    8 1
     9    5   12 1
    10    9   10 2
    11    9   11 1
    12    9   12 1
    13    9   13 1
    14   13   14 1
    15   14   15 1
    16   14   33 1
    17   14   34 1
    18   15   16 1
    19   15   17 1
    20   15   35 1
    21   16   21 1
    22   17   18 1
    23   17   19 1
    24   17   36 1
    25   18   37 1
    26   19   20 1
    27   19   21 1
    28   19   38 1
    29   20   39 1
    30   21   22 1
    31   21   40 1
    32   22   23 ar
    33   22   31 ar
    34   23   24 ar
    35   23   41 1
    36   24   25 ar
    37   25   26 ar
    38   25   31 ar
    39   26   27 2
    40   26   28 ar
    41   27   42 1
    42   28   29 ar
    43   28   44 1
    44   29   30 ar
    45   29   43 1
    46   30   31 ar
@<TRIPOS>SUBSTRUCTURE
     1 ATP         1 GROUP 0 A     ****
@<TRIPOS>MOLECULE
[[[3,4-dihydroxy-5-(6-imino-1~{H}-purin-9-yl)tetrahydrofuran-2-yl]methoxy-oxido-phosphoryl]oxy-oxido-phosphoryl] hydrogen phosphate
   44    46     1     0     0
SMALL
USER_CHARGES

@<TRIPOS>ATOM
      1 PG          8.0119    2.9900   -4.7092 P.3       1 ATP         1.5257
      2 O1G         6.8882    2.8846   -5.7159 O.co2     1 ATP        -0.8737
      3 O2G         9.1695    2.0168   -4.7317 O.co2     1 ATP        -0.8737
      4 O3G         8.6102    4.5085   -4.7568 O.3       1 ATP        -0.7971
      5 PB          8.1067    3.2761   -1.7676 P.3       1 ATP         1.6824
      6 O1B         9.0339    2.1156   -1.4827 O.co2     1 ATP        -0.8925
      7 O2B         8.6021    4.7043   -1.7207 O.co2     1 ATP        -0.8925
      8 O3B         7.3771    3.0221   -3.2060 O.3       1 ATP        -0.8047
      9 PA          5.4151    4.0218   -0.7908 P.3       1 ATP         1.5908
     10 O1A         4.6679    3.7762   -2.0837 O.co2     1 ATP        -0.8932
     11 O2A         5.7510    5.4288   -0.3468 O.co2     1 ATP        -0.8932
     12 O3A         6.7939    3.1452   -0.8063 O.3       1 ATP        -0.8088
     13 O5'         4.6405    3.2699    0.4378 O.3       1 ATP        -0.5646
     14 C5'         4.0922    1.9801    0.2227 C.3       1 ATP         0.2204
     15 C4'         2.5944    2.0310    0.4653 C.3       1 ATP         0.0965
     16 O4'         1.9327    2.5740   -0.6889 O.3       1 ATP        -0.3907
     17 C3'         1.9685    0.6634    0.6767 C.3       1 ATP         0.0763
     18 O3'         2.1425    0.1975    1.9977 O.3       1 ATP        -0.5884
     19 C2'         0.5176    0.9128    0.3099 C.3       1 ATP         0.0784
     20 O2'        -0.2103    1.4454    1.4152 O.3       1 ATP        -0.6085
     21 C1'         0.6219    1.9765   -0.7844 C.3       1 ATP         0.2186
     22 N9          0.4237    1.4496   -2.1357 N.pl3     1 ATP        -0.1699
     23 C8          1.4069    0.9710   -2.9662 C.ar      1 ATP         0.4438
     24 N7          0.9316    0.5623   -4.1260 N.2       1 ATP        -0.6280
     25 C5         -0.4120    0.7884   -4.0344 C.ar      1 ATP         0.2109
     26 C6         -1.4353    0.5283   -5.0204 C.ar      1 ATP         0.6180
     27 N6         -1.1199    0.0176   -6.1586 N.2       1 ATP        -0.8319
     28 N1         -2.6704    0.9095   -4.5147 N.pl3     1 ATP        -0.8664
     29 C2         -2.8863    1.4571   -3.2520 C.ar      1 ATP         0.5952
     30 N3         -1.9805    1.7017   -2.3442 N.2       1 ATP        -0.5599
     31 C4         -0.7561    1.3381   -2.8112 C.ar      1 ATP         0.0076
     32 HOG3        9.3514    4.7373   -4.1563 H         1 ATP         0.4101
     33 H5'1        4.3028    1.6728   -0.8066 H         1 ATP         0.0364
     34 H5'2        4.5677    1.2738    0.9106 H         1 ATP         0.0364
     35 H4'         2.3752    2.7029    1.3156 H         1 ATP         0.0945
     36 H3'         2.4336   -0.1217   -0.0015 H         1 ATP         0.0703
     37 HO3'        1.7160   -0.6716    2.0397 H         1 ATP         0.4099
     38 H2'         0.0316    0.0155   -0.0339 H         1 ATP         0.0676
     39 HO2'       -0.1608    0.7921    2.1351 H         1 ATP         0.4291
     40 H1'        -0.1474    2.7798   -0.6651 H         1 ATP         0.0950
     41 H8          2.4466    0.9468   -2.6694 H         1 ATP         0.1135
     42 HN62       -1.9661   -0.0965   -6.7275 H         1 ATP         0.3588
     43 H2         -3.9481    1.6825   -3.0660 H         1 ATP         0.0302
     44 H44        -3.4814    0.7753   -5.1133 H         1 ATP         0.4215
@<TRIPOS>BOND
     1    1    2 2
     2    1    3 1
     3    1    4 1
     4    1    8 1
     5    4   32 1
     6    5    6 2
     7    5    7 1
     8    5    8 1
     9    5   12 1
    10    9   10 2
    11    9   11 1
    12    9   12 1
    13    9   13 1
    14   13   14 1
    15   14   15 1
    16   14   33 1
    17   14   34 1
    18   15   16 1
    19   15   17 1
    20   15   35 1
    21   16   21 1
    22   17   18 1
    23   17   19 1
    24   17   36 1
    25   18   37 1
    26   19   20 1
    27   19   21 1
    28   19   38 1
    29   20   39 1
    30   21   22 1
    31   21   40 1
    32   22   23 ar
    33   22   31 ar
    34   23   24 ar
    35   23   41 1
    36   24   25 ar
    37   25   26 ar
    38   25   31 ar
    39   26   27 2
    40   26   28 ar
    41   27   42 1
    42   28   29 ar
    43   28   44 1
    44   29   30 ar
    45   29   43 1
    46   30   31 ar
@<TRIPOS>SUBSTRUCTURE
     1 ATP         1 GROUP 0 A     ****
@<TRIPOS>MOLECULE
[[[3,4-dihydroxy-5-(6-imino-1~{H}-purin-9-yl)tetrahydrofuran-2-yl]methoxy-oxido-phosphoryl]oxy-oxido-phosphoryl] hydrogen phosphate
   44    46     1     0     0
SMALL
USER_CHARGES

@<TRIPOS>ATOM
      1 PG          0.9579    8.7657    0.8909 P.3       1 ATP         1.5257
      2 O1G         0.6587    9.1451   -0.5423 O.co2     1 ATP        -0.8737
      3 O2G         2.3835    8.6472    1.3821 O.co2     1 ATP        -0.8737
      4 O3G         0.1531    9.7885    1.8769 O.3       1 ATP        -0.7971
      5 PB         -1.4278    7.0312    1.0987 P.3       1 ATP         1.6824
      6 O1B        -2.2170    7.8897    2.0620 O.co2     1 ATP        -0.8925
      7 O2B        -1.7722    6.9863   -0.3733 O.co2     1 ATP        -0.8925
      8 O3B         0.1570    7.3910    1.2548 O.3       1 ATP        -0.8047
      9 PA         -2.5926    4.4187    1.8556 P.3       1 ATP         1.5908
     10 O1A        -3.1164    4.0395    0.4873 O.co2     1 ATP        -0.8932
     11 O2A        -3.5302    4.9262    2.9294 O.co2     1 ATP        -0.8932
     12 O3A        -1.3848    5.5039    1.6734 O.3       1 ATP        -0.8088
     13 O5'        -1.7336    3.1724    2.4750 O.3       1 ATP        -0.5646
     14 C5'        -0.8811    2.4285    1.6206 C.3       1 ATP         0.2204
     15 C4'        -0.1994    1.3333    2.4288 C.3       1 ATP         0.0965
     16 O4'        -1.1285    0.2356    2.5840 O.3       1 ATP        -0.3907
     17 C3'         1.0324    0.7610    1.7344 C.3       1 ATP         0.0763
     18 O3'         1.9175    0.2377    2.7247 O.3       1 ATP        -0.5884
     19 C2'         0.4468   -0.3802    0.9263 C.3       1 ATP         0.0784
     20 O2'         1.3993   -1.3703    0.5961 O.3       1 ATP        -0.6085
     21 C1'        -0.6159   -0.9100    1.8769 C.3       1 ATP         0.2186
     22 N9         -1.7127   -1.6108    1.2130 N.pl3     1 ATP        -0.1699
     23 C8         -1.6202   -2.3321    0.0482 C.ar      1 ATP         0.4438
     24 N7         -2.7754   -2.8539   -0.3142 N.2       1 ATP        -0.6280
     25 C5         -3.6439   -2.4502    0.6592 C.ar      1 ATP         0.2109
     26 C6         -5.0563   -2.7308    0.7745 C.ar      1 ATP         0.6180
     27 N6         -5.6468   -3.4480   -0.1158 N.2       1 ATP        -0.8319
     28 N1         -5.5549   -2.1241    1.9191 N.pl3     1 ATP        -0.8664
     29 C2         -4.8068   -1.3637    2.8153 C.ar      1 ATP         0.5952
     30 N3         -3.5318   -1.0957    2.7338 N.2       1 ATP        -0.5599
     31 C4         -3.0130   -1.6778    1.6196 C.ar      1 ATP         0.0076
     32 HOG3        0.2455    9.6717    2.8465 H         1 ATP         0.4101
     33 H5'1       -1.4800    1.9927    0.8146 H         1 ATP         0.0364
     34 H5'2       -0.1367    3.1040    1.1872 H         1 ATP         0.0364
     35 H4'         0.0403    1.7078    3.4343 H         1 ATP         0.0945
     36 H3'         1.5907    1.4859    1.1353 H         1 ATP         0.0703
     37 HO3'        2.6839   -0.1150    2.2479 H         1 ATP         0.4099
     38 H2'        -0.0017    0.0018    0.0005 H         1 ATP         0.0676
     39 HO2'        2.0953   -0.9375    0.0709 H         1 ATP         0.4291
     40 H1'        -0.1998   -1.6319    2.6178 H         1 ATP         0.0950
     41 H8         -0.6865   -2.4395   -0.4871 H         1 ATP         0.1135
     42 HN62       -6.6394   -3.5426    0.1257 H         1 ATP         0.3588
     43 H2         -5.4125   -0.9811    3.6517 H         1 ATP         0.0302
     44 H44        -6.5442   -2.2475    2.1195 H         1 ATP         0.4215
@<TRIPOS>BOND
     1    1    2 2
     2    1    3 1
     3    1    4 1
     4    1    8 1
     5    4   32 1
     6    5    6 2
     7    5    7 1
     8    5    8 1
     9    5   12 1
    10    9   10 2
    11    9   11 1
    12    9   12 1
    13    9   13 1
    14   13   14 1
    15   14   15 1
    16   14   33 1
    17   14   34 1
    18   15   16 1
    19   15   17 1
    20   15   35 1
    21   16   21 1
    22   17   18 1
    23   17   19 1
    24   17   36 1
    25   18   37 1
    26   19   20 1
    27   19   21 1
    28   19   38 1
    29   20   39 1
    30   21   22 1
    31   21   40 1
    32   22   23 ar
    33   22   31 ar
    34   23   24 ar
    35   23   41 1
    36   24   25 ar
    37   25   26 ar
    38   25   31 ar
    39   26   27 2
    40   26   28 ar
    41   27   42 1
    42   28   29 ar
    43   28   44 1
    44   29   30 ar
    45   29   43 1
    46   30   31 ar
@<TRIPOS>SUBSTRUCTURE
     1 ATP         1 GROUP 0 A     ****
@<TRIPOS>MOLECULE
[[[3,4-dihydroxy-5-(6-imino-1~{H}-purin-9-yl)tetrahydrofuran-2-yl]methoxy-oxido-phosphoryl]oxy-oxido-phosphoryl] hydrogen phosphate
   44    46     1     0     0
SMALL
USER_CHARGES

@<TRIPOS>ATOM
      1 PG         -3.3006    6.9846    5.3160 P.3       1 ATP         1.5257
      2 O1G        -4.6472    6.9026    4.6324 O.co2     1 ATP        -0.8737
      3 O2G        -2.6417    8.3207    5.5774 O.co2     1 ATP        -0.8737
      4 O3G        -3.3830    6.1629    6.7245 O.3       1 ATP        -0.7971
      5 PB         -0.7129    5.6110    4.9154 P.3       1 ATP         1.6824
      6 O1B         0.1567    6.8447    4.8192 O.co2     1 ATP        -0.8925
      7 O2B        -0.7379    4.7660    6.1696 O.co2     1 ATP        -0.8925
      8 O3B        -2.2456    6.0195    4.5289 O.3       1 ATP        -0.8047
      9 PA         -0.3962    4.9846    2.0409 P.3       1 ATP         1.5908
     10 O1A         0.7136    5.9719    1.7515 O.co2     1 ATP        -0.8932
     11 O2A        -1.8200    5.2757    1.6193 O.co2     1 ATP        -0.8932
     12 O3A        -0.3932    4.6446    3.6391 O.3       1 ATP        -0.8088
     13 O5'         0.0178    3.5131    1.4595 O.3       1 ATP        -0.5646
     14 C5'        -0.8811    2.4285    1.6206 C.3       1 ATP         0.2204
     15 C4'        -0.1994    1.3333    2.4288 C.3       1 ATP         0.0965
     16 O4'        -1.1285    0.2356    2.5840 O.3       1 ATP        -0.3907
     17 C3'         1.0324    0.7610    1.7344 C.3       1 ATP         0.0763
     18 O3'         1.9175    0.2377    2.7247 O.3       1 ATP        -0.5884
     19 C2'         0.4468   -0.3802    0.9263 C.3       1 ATP         0.0784
     20 O2'         1.3993   -1.3703    0.5961 O.3       1 ATP        -0.6085
     21 C1'        -0.6159   -0.9100    1.8769 C.3       1 ATP         0.2186
     22 N9         -1.7127   -1.6108    1.2130 N.pl3     1 ATP        -0.1699
     23 C8         -2.0868   -2.9137    1.4327 C.ar      1 ATP         0.4438
     24 N7         -3.1125   -3.2756    0.6878 N.2       1 ATP        -0.6280
     25 C5         -3.4079   -2.1580   -0.0391 C.ar      1 ATP         0.2109
     26 C6         -4.4483   -1.9775   -1.0249 C.ar      1 ATP         0.6180
     27 N6         -5.2418   -2.9492   -1.3113 N.2       1 ATP        -0.8319
     28 N1         -4.3937   -0.6823   -1.5211 N.pl3     1 ATP        -0.8664
     29 C2         -3.4770    0.2901   -1.1271 C.ar      1 ATP         0.5952
     30 N3         -2.5289    0.1525   -0.2402 N.2       1 ATP        -0.5599
     31 C4         -2.5564   -1.1096    0.2655 C.ar      1 ATP         0.0076
     32 HOG3       -2.5819    6.1227    7.2892 H         1 ATP         0.4101
     33 H5'1       -1.7771    2.7849    2.1387 H         1 ATP         0.0364
     34 H5'2       -1.1654    2.0541    0.6320 H         1 ATP         0.0364
     35 H4'         0.0403    1.7078    3.4343 H         1 ATP         0.0945
     36 H3'         1.5907    1.4859    1.1353 H         1 ATP         0.0703
     37 HO3'        2.1521    0.9800    3.3017 H         1 ATP         0.4099
     38 H2'        -0.0017    0.0018    0.0005 H         1 ATP         0.0676
     39 HO2'        0.9369   -2.0558    0.0825 H         1 ATP         0.4291
     40 H1'        -0.1998   -1.6319    2.6178 H         1 ATP         0.0950
     41 H8         -1.5740   -3.5449    2.1457 H         1 ATP         0.1135
     42 HN62       -5.9117   -2.6433   -2.0256 H         1 ATP         0.3588
     43 H2         -3.6225    1.2454   -1.6553 H         1 ATP         0.0302
     44 H44        -5.0794   -0.4231   -2.2258 H         1 ATP         0.4215
@<TRIPOS>BOND
     1    1    2 2
     2    1    3 1
     3    1    4 1
     4    1    8 1
     5    4   32 1
     6    5    6 2
     7    5    7 1
     8    5    8 1
     9    5   12 1
    10    9   10 2
    11    9   11 1
    12    9   12 1
    13    9   13 1
    14   13   14 1
    15   14   15 1
    16   14   33 1
    17   14   34 1
    18   15   16 1
    19   15   17 1
    20   15   35 1
    21   16   21 1
    22   17   18 1
    23   17   19 1
    24   17   36 1
    25   18   37 1
    26   19   20 1
    27   19   21 1
    28   19   38 1
    29   20   39 1
    30   21   22 1
    31   21   40 1
    32   22   23 ar
    33   22   31 ar
    34   23   24 ar
    35   23   41 1
    36   24   25 ar
    37   25   26 ar
    38   25   31 ar
    39   26   27 2
    40   26   28 ar
    41   27   42 1
    42   28   29 ar
    43   28   44 1
    44   29   30 ar
    45   29   43 1
    46   30   31 ar
@<TRIPOS>SUBSTRUCTURE
     1 ATP         1 GROUP 0 A     ****
@<TRIPOS>MOLECULE
[[[3,4-dihydroxy-5-(6-imino-1~{H}-purin-9-yl)tetrahydrofuran-2-yl]methoxy-oxido-phosphoryl]oxy-oxido-phosphoryl] hydrogen phosphate
   44    46     1     0     0
SMALL
USER_CHARGES

@<TRIPOS>ATOM
      1 PG         -4.6311    7.9008    1.8770 P.3       1 ATP         1.5257
      2 O1G        -4.1181    9.2652    1.4735 O.co2     1 ATP        -0.8737
      3 O2G        -5.4278    7.7150    3.1492 O.co2     1 ATP        -0.8737
      4 O3G        -5.4880    7.2803    0.6334 O.3       1 ATP        -0.7971
      5 PB         -2.0719    6.7716    2.8355 P.3       1 ATP         1.6824
      6 O1B        -1.2041    7.9796    2.5614 O.co2     1 ATP        -0.8925
      7 O2B        -2.5170    6.4293    4.2399 O.co2     1 ATP        -0.8925
      8 O3B        -3.3881    6.8432    1.8721 O.3       1 ATP        -0.8047
      9 PA          0.0330    4.7083    2.5757 P.3       1 ATP         1.5908
     10 O1A        -0.1146    4.1098    3.9578 O.co2     1 ATP        -0.8932
     11 O2A         1.1815    5.6399    2.2548 O.co2     1 ATP        -0.8932
     12 O3A        -1.3630    5.4574    2.1758 O.3       1 ATP        -0.8088
     13 O5'         0.0178    3.5131    1.4595 O.3       1 ATP        -0.5646
     14 C5'        -0.8811    2.4285    1.6206 C.3       1 ATP         0.2204
     15 C4'        -0.1994    1.3333    2.4288 C.3       1 ATP         0.0965
     16 O4'        -1.1285    0.2356    2.5840 O.3       1 ATP        -0.3907
     17 C3'         1.0324    0.7610    1.7344 C.3       1 ATP         0.0763
     18 O3'         1.9175    0.2377    2.7247 O.3       1 ATP        -0.5884
     19 C2'         0.4468   -0.3802    0.9263 C.3       1 ATP         0.0784
     20 O2'         1.3993   -1.3703    0.5961 O.3       1 ATP        -0.6085
     21 C1'        -0.6159   -0.9100    1.8769 C.3       1 ATP         0.2186
     22 N9         -1.7127   -1.6108    1.2130 N.pl3     1 ATP        -0.1699
     23 C8         -2.0868   -2.9137    1.4327 C.ar      1 ATP         0.4438
     24 N7         -3.1125   -3.2756    0.6878 N.2       1 ATP        -0.6280
     25 C5         -3.4079   -2.1580   -0.0391 C.ar      1 ATP         0.2109
     26 C6         -4.4483   -1.9775   -1.0249 C.ar      1 ATP         0.6180
     27 N6         -5.2418   -2.9492   -1.3113 N.2       1 ATP        -0.8319
     28 N1         -4.3937   -0.6823   -1.5211 N.pl3     1 ATP        -0.8664
     29 C2         -3.4770    0.2901   -1.1271 C.ar      1 ATP         0.5952
     30 N3         -2.5289    0.1525   -0.2402 N.2       1 ATP        -0.5599
     31 C4         -2.5564   -1.1096    0.2655 C.ar      1 ATP         0.0076
     32 HOG3       -5.8899    6.3919    0.7407 H         1 ATP         0.4101
     33 H5'1       -1.7771    2.7849    2.1387 H         1 ATP         0.0364
     34 H5'2       -1.1654    2.0541    0.6320 H         1 ATP         0.0364
     35 H4'         0.0403    1.7078    3.4343 H         1 ATP         0.0945
     36 H3'         1.5907    1.4859    1.1353 H         1 ATP         0.0703
     37 HO3'        2.1521    0.9800    3.3017 H         1 ATP         0.4099
     38 H2'        -0.0017    0.0018    0.0005 H         1 ATP         0.0676
     39 HO2'        0.9369   -2.0558    0.0825 H         1 ATP         0.4291
     40 H1'        -0.1998   -1.6319    2.6178 H         1 ATP         0.0950
     41 H8         -1.5740   -3.5449    2.1457 H         1 ATP         0.1135
     42 HN62       -5.9117   -2.6433   -2.0256 H         1 ATP         0.3588
     43 H2         -3.6225    1.2454   -1.6553 H         1 ATP         0.0302
     44 H44        -5.0794   -0.4231   -2.2258 H         1 ATP         0.4215
@<TRIPOS>BOND
     1    1    2 2
     2    1    3 1
     3    1    4 1
     4    1    8 1
     5    4   32 1
     6    5    6 2
     7    5    7 1
     8    5    8 1
     9    5   12 1
    10    9   10 2
    11    9   11 1
    12    9   12 1
    13    9   13 1
    14   13   14 1
    15   14   15 1
    16   14   33 1
    17   14   34 1
    18   15   16 1
    19   15   17 1
    20   15   35 1
    21   16   21 1
    22   17   18 1
    23   17   19 1
    24   17   36 1
    25   18   37 1
    26   19   20 1
    27   19   21 1
    28   19   38 1
    29   20   39 1
    30   21   22 1
    31   21   40 1
    32   22   23 ar
    33   22   31 ar
    34   23   24 ar
    35   23   41 1
    36   24   25 ar
    37   25   26 ar
    38   25   31 ar
    39   26   27 2
    40   26   28 ar
    41   27   42 1
    42   28   29 ar
    43   28   44 1
    44   29   30 ar
    45   29   43 1
    46   30   31 ar
@<TRIPOS>SUBSTRUCTURE
     1 ATP         1 GROUP 0 A     ****
@<TRIPOS>MOLECULE
[[[3,4-dihydroxy-5-(6-imino-1~{H}-purin-9-yl)tetrahydrofuran-2-yl]methoxy-oxido-phosphoryl]oxy-oxido-phosphoryl] hydrogen phosphate
   44    46     1     0     0
SMALL
USER_CHARGES

@<TRIPOS>ATOM
      1 PG          8.1413    4.8125   -0.4546 P.3       1 ATP         1.5257
      2 O1G         6.9363    5.5671    0.0610 O.co2     1 ATP        -0.8737
      3 O2G         8.1085    4.1213   -1.7996 O.co2     1 ATP        -0.8737
      4 O3G         9.4335    5.8099   -0.4158 O.3       1 ATP        -0.7971
      5 PB          7.8706    2.4061    1.2422 P.3       1 ATP         1.6824
      6 O1B         7.4966    1.5288    0.0684 O.co2     1 ATP        -0.8925
      7 O2B         8.6634    1.8586    2.4081 O.co2     1 ATP        -0.8925
      8 O3B         8.6224    3.7414    0.6790 O.3       1 ATP        -0.8047
      9 PA          5.2202    2.4549    2.5568 P.3       1 ATP         1.5908
     10 O1A         4.1772    3.5316    2.7649 O.co2     1 ATP        -0.8932
     11 O2A         5.7107    1.6182    3.7182 O.co2     1 ATP        -0.8932
     12 O3A         6.5178    3.1167    1.8164 O.3       1 ATP        -0.8088
     13 O5'         4.7294    1.4427    1.3696 O.3       1 ATP        -0.5646
     14 C5'         4.0922    1.9801    0.2227 C.3       1 ATP         0.2204
     15 C4'         2.5944    2.0310    0.4653 C.3       1 ATP         0.0965
     16 O4'         1.9327    2.5740   -0.6889 O.3       1 ATP        -0.3907
     17 C3'         1.9685    0.6634    0.6767 C.3       1 ATP         0.0763
     18 O3'         2.1425    0.1975    1.9977 O.3       1 ATP        -0.5884
     19 C2'         0.5176    0.9128    0.3099 C.3       1 ATP         0.0784
     20 O2'        -0.2103    1.4454    1.4152 O.3       1 ATP        -0.6085
     21 C1'         0.6219    1.9765   -0.7844 C.3       1 ATP         0.2186
     22 N9          0.4237    1.4496   -2.1357 N.pl3     1 ATP        -0.1699
     23 C8          1.4069    0.9710   -2.9662 C.ar      1 ATP         0.4438
     24 N7          0.9316    0.5623   -4.1260 N.2       1 ATP        -0.6280
     25 C5         -0.4120    0.7884   -4.0344 C.ar      1 ATP         0.2109
     26 C6         -1.4353    0.5283   -5.0204 C.ar      1 ATP         0.6180
     27 N6         -1.1199    0.0176   -6.1586 N.2       1 ATP        -0.8319
     28 N1         -2.6704    0.9095   -4.5147 N.pl3     1 ATP        -0.8664
     29 C2         -2.8863    1.4571   -3.2520 C.ar      1 ATP         0.5952
     30 N3         -1.9805    1.7017   -2.3442 N.2       1 ATP        -0.5599
     31 C4         -0.7561    1.3381   -2.8112 C.ar      1 ATP         0.0076
     32 HOG3       10.2992    5.4646   -0.7218 H         1 ATP         0.4101
     33 H5'1        4.4843    2.9854    0.0380 H         1 ATP         0.0364
     34 H5'2        4.3191    1.3446   -0.6392 H         1 ATP         0.0364
     35 H4'         2.3752    2.7029    1.3156 H         1 ATP         0.0945
     36 H3'         2.4336   -0.1217   -0.0015 H         1 ATP         0.0703
     37 HO3'        3.0987    0.1465    2.1461 H         1 ATP         0.4099
     38 H2'         0.0316    0.0155   -0.0339 H         1 ATP         0.0676
     39 HO2'       -0.1608    0.7921    2.1351 H         1 ATP         0.4291
     40 H1'        -0.1474    2.7798   -0.6651 H         1 ATP         0.0950
     41 H8          2.4466    0.9468   -2.6694 H         1 ATP         0.1135
     42 HN62       -1.9661   -0.0965   -6.7275 H         1 ATP         0.3588
     43 H2         -3.9481    1.6825   -3.0660 H         1 ATP         0.0302
     44 H44        -3.4814    0.7753   -5.1133 H         1 ATP         0.4215
@<TRIPOS>BOND
     1    1    2 2
     2    1    3 1
     3    1    4 1
     4    1    8 1
     5    4   32 1
     6    5    6 2
     7    5    7 1
     8    5    8 1
     9    5   12 1
    10    9   10 2
    11    9   11 1
    12    9   12 1
    13    9   13 1
    14   13   14 1
    15   14   15 1
    16   14   33 1
    17   14   34 1
    18   15   16 1
    19   15   17 1
    20   15   35 1
    21   16   21 1
    22   17   18 1
    23   17   19 1
    24   17   36 1
    25   18   37 1
    26   19   20 1
    27   19   21 1
    28   19   38 1
    29   20   39 1
    30   21   22 1
    31   21   40 1
    32   22   23 ar
    33   22   31 ar
    34   23   24 ar
    35   23   41 1
    36   24   25 ar
    37   25   26 ar
    38   25   31 ar
    39   26   27 2
    40   26   28 ar
    41   27   42 1
    42   28   29 ar
    43   28   44 1
    44   29   30 ar
    45   29   43 1
    46   30   31 ar
@<TRIPOS>SUBSTRUCTURE
     1 ATP         1 GROUP 0 A     ****
@<TRIPOS>MOLECULE
[[[3,4-dihydroxy-5-(6-imino-1~{H}-purin-9-yl)tetrahydrofuran-2-yl]methoxy-oxido-phosphoryl]oxy-oxido-phosphoryl] hydrogen phosphate
   44    46     1     0     0
SMALL
USER_CHARGES

@<TRIPOS>ATOM
      1 PG         -3.2243    8.6943    3.8995 P.3       1 ATP         1.5257
      2 O1G        -3.3629    9.6724    2.7542 O.co2     1 ATP        -0.8737
      3 O2G        -2.4240    9.0498    5.1327 O.co2     1 ATP        -0.8737
      4 O3G        -4.7177    8.2283    4.3672 O.3       1 ATP        -0.7971
      5 PB         -1.2528    6.8802    2.6483 P.3       1 ATP         1.6824
      6 O1B        -1.1212    7.6063    1.3281 O.co2     1 ATP        -0.8925
      7 O2B        -0.1811    6.9853    3.7103 O.co2     1 ATP        -0.8925
      8 O3B        -2.6916    7.2659    3.3167 O.3       1 ATP        -0.8047
      9 PA         -1.9156    4.0918    3.3837 P.3       1 ATP         1.5908
     10 O1A        -3.2735    4.3719    3.9903 O.co2     1 ATP        -0.8932
     11 O2A        -0.7136    3.8310    4.2651 O.co2     1 ATP        -0.8932
     12 O3A        -1.5422    5.3014    2.3507 O.3       1 ATP        -0.8088
     13 O5'        -2.0401    2.8620    2.3128 O.3       1 ATP        -0.5646
     14 C5'        -0.8811    2.4285    1.6206 C.3       1 ATP         0.2204
     15 C4'        -0.1994    1.3333    2.4288 C.3       1 ATP         0.0965
     16 O4'        -1.1285    0.2356    2.5840 O.3       1 ATP        -0.3907
     17 C3'         1.0324    0.7610    1.7344 C.3       1 ATP         0.0763
     18 O3'         1.9175    0.2377    2.7247 O.3       1 ATP        -0.5884
     19 C2'         0.4468   -0.3802    0.9263 C.3       1 ATP         0.0784
     20 O2'         1.3993   -1.3703    0.5961 O.3       1 ATP        -0.6085
     21 C1'        -0.6159   -0.9100    1.8769 C.3       1 ATP         0.2186
     22 N9         -1.7127   -1.6108    1.2130 N.pl3     1 ATP        -0.1699
     23 C8         -2.5485   -1.0808    0.2609 C.ar      1 ATP         0.4438
     24 N7         -3.4476   -1.9486   -0.1593 N.2       1 ATP        -0.6280
     25 C5         -3.1762   -3.0816    0.5530 C.ar      1 ATP         0.2109
     26 C6         -3.8510   -4.3579    0.5006 C.ar      1 ATP         0.6180
     27 N6         -4.8468   -4.5293   -0.2961 N.2       1 ATP        -0.8319
     28 N1         -3.2499   -5.2342    1.3937 N.pl3     1 ATP        -0.8664
     29 C2         -2.1646   -4.9275    2.2116 C.ar      1 ATP         0.5952
     30 N3         -1.5382   -3.7840    2.2778 N.2       1 ATP        -0.5599
     31 C4         -2.1054   -2.9018    1.4120 C.ar      1 ATP         0.0076
     32 HOG3       -5.2943    7.7817    3.7112 H         1 ATP         0.4101
     33 H5'1       -1.1767    2.0502    0.6368 H         1 ATP         0.0364
     34 H5'2       -0.2080    3.2814    1.4876 H         1 ATP         0.0364
     35 H4'         0.0403    1.7078    3.4343 H         1 ATP         0.0945
     36 H3'         1.5907    1.4859    1.1353 H         1 ATP         0.0703
     37 HO3'        2.6839   -0.1150    2.2479 H         1 ATP         0.4099
     38 H2'        -0.0017    0.0018    0.0005 H         1 ATP         0.0676
     39 HO2'        0.9369   -2.0558    0.0825 H         1 ATP         0.4291
     40 H1'        -0.1998   -1.6319    2.6178 H         1 ATP         0.0950
     41 H8         -2.4515   -0.0599   -0.0829 H         1 ATP         0.1135
     42 HN62       -5.1990   -5.4882   -0.2005 H         1 ATP         0.3588
     43 H2         -1.8555   -5.7783    2.8388 H         1 ATP         0.0302
     44 H44        -3.6312   -6.1750    1.4526 H         1 ATP         0.4215
@<TRIPOS>BOND
     1    1    2 2
     2    1    3 1
     3    1    4 1
     4    1    8 1
     5    4   32 1
     6    5    6 2
     7    5    7 1
     8    5    8 1
     9    5   12 1
    10    9   10 2
    11    9   11 1
    12    9   12 1
    13    9   13 1
    14   13   14 1
    15   14   15 1
    16   14   33 1
    17   14   34 1
    18   15   16 1
    19   15   17 1
    20   15   35 1
    21   16   21 1
    22   17   18 1
    23   17   19 1
    24   17   36 1
    25   18   37 1
    26   19   20 1
    27   19   21 1
    28   19   38 1
    29   20   39 1
    30   21   22 1
    31   21   40 1
    32   22   23 ar
    33   22   31 ar
    34   23   24 ar
    35   23   41 1
    36   24   25 ar
    37   25   26 ar
    38   25   31 ar
    39   26   27 2
    40   26   28 ar
    41   27   42 1
    42   28   29 ar
    43   28   44 1
    44   29   30 ar
    45   29   43 1
    46   30   31 ar
@<TRIPOS>SUBSTRUCTURE
     1 ATP         1 GROUP 0 A     ****
@<TRIPOS>MOLECULE
[[[3,4-dihydroxy-5-(6-imino-1~{H}-purin-9-yl)tetrahydrofuran-2-yl]methoxy-oxido-phosphoryl]oxy-oxido-phosphoryl] hydrogen phosphate
   44    46     1     0     0
SMALL
USER_CHARGES

@<TRIPOS>ATOM
      1 PG          9.9402    3.6554   -1.5836 P.3       1 ATP         1.5257
      2 O1G         9.5531    5.1141   -1.6824 O.co2     1 ATP        -0.8737
      3 O2G        10.7253    2.9831   -2.6878 O.co2     1 ATP        -0.8737
      4 O3G        10.7270    3.4221   -0.1720 O.3       1 ATP        -0.7971
      5 PB          8.4598    1.1837   -0.9183 P.3       1 ATP         1.6824
      6 O1B         8.8548    0.3790   -2.1364 O.co2     1 ATP        -0.8925
      7 O2B         9.0946    0.9263    0.4302 O.co2     1 ATP        -0.8925
      8 O3B         8.6045    2.7714   -1.2704 O.3       1 ATP        -0.8047
      9 PA          5.6603    1.4687   -1.8328 P.3       1 ATP         1.5908
     10 O1A         5.7257    0.4651   -2.9636 O.co2     1 ATP        -0.8932
     11 O2A         5.6969    2.9550   -2.1146 O.co2     1 ATP        -0.8932
     12 O3A         6.8369    1.1215   -0.7536 O.3       1 ATP        -0.8088
     13 O5'         4.3516    1.1575   -0.9026 O.3       1 ATP        -0.5646
     14 C5'         4.0922    1.9801    0.2227 C.3       1 ATP         0.2204
     15 C4'         2.5944    2.0310    0.4653 C.3       1 ATP         0.0965
     16 O4'         1.9327    2.5740   -0.6889 O.3       1 ATP        -0.3907
     17 C3'         1.9685    0.6634    0.6767 C.3       1 ATP         0.0763
     18 O3'         2.1425    0.1975    1.9977 O.3       1 ATP        -0.5884
     19 C2'         0.5176    0.9128    0.3099 C.3       1 ATP         0.0784
     20 O2'        -0.2103    1.4454    1.4152 O.3       1 ATP        -0.6085
     21 C1'         0.6219    1.9765   -0.7844 C.3       1 ATP         0.2186
     22 N9          0.4237    1.4496   -2.1357 N.pl3     1 ATP        -0.1699
     23 C8          1.4069    0.9710   -2.9662 C.ar      1 ATP         0.4438
     24 N7          0.9316    0.5623   -4.1260 N.2       1 ATP        -0.6280
     25 C5         -0.4120    0.7884   -4.0344 C.ar      1 ATP         0.2109
     26 C6         -1.4353    0.5283   -5.0204 C.ar      1 ATP         0.6180
     27 N6         -1.1199    0.0176   -6.1586 N.2       1 ATP        -0.8319
     28 N1         -2.6704    0.9095   -4.5147 N.pl3     1 ATP        -0.8664
     29 C2         -2.8863    1.4571   -3.2520 C.ar      1 ATP         0.5952
     30 N3         -1.9805    1.7017   -2.3442 N.2       1 ATP        -0.5599
     31 C4         -0.7561    1.3381   -2.8112 C.ar      1 ATP         0.0076
     32 HOG3       11.0456    2.5192    0.0412 H         1 ATP         0.4101
     33 H5'1        4.6069    1.5618    1.0936 H         1 ATP         0.0364
     34 H5'2        4.4824    2.9837    0.0254 H         1 ATP         0.0364
     35 H4'         2.3752    2.7029    1.3156 H         1 ATP         0.0945
     36 H3'         2.4336   -0.1217   -0.0015 H         1 ATP         0.0703
     37 HO3'        1.7160   -0.6716    2.0397 H         1 ATP         0.4099
     38 H2'         0.0316    0.0155   -0.0339 H         1 ATP         0.0676
     39 HO2'       -0.1608    0.7921    2.1351 H         1 ATP         0.4291
     40 H1'        -0.1474    2.7798   -0.6651 H         1 ATP         0.0950
     41 H8          2.4466    0.9468   -2.6694 H         1 ATP         0.1135
     42 HN62       -1.9661   -0.0965   -6.7275 H         1 ATP         0.3588
     43 H2         -3.9481    1.6825   -3.0660 H         1 ATP         0.0302
     44 H44        -3.4814    0.7753   -5.1133 H         1 ATP         0.4215
@<TRIPOS>BOND
     1    1    2 2
     2    1    3 1
     3    1    4 1
     4    1    8 1
     5    4   32 1
     6    5    6 2
     7    5    7 1
     8    5    8 1
     9    5   12 1
    10    9   10 2
    11    9   11 1
    12    9   12 1
    13    9   13 1
    14   13   14 1
    15   14   15 1
    16   14   33 1
    17   14   34 1
    18   15   16 1
    19   15   17 1
    20   15   35 1
    21   16   21 1
    22   17   18 1
    23   17   19 1
    24   17   36 1
    25   18   37 1
    26   19   20 1
    27   19   21 1
    28   19   38 1
    29   20   39 1
    30   21   22 1
    31   21   40 1
    32   22   23 ar
    33   22   31 ar
    34   23   24 ar
    35   23   41 1
    36   24   25 ar
    37   25   26 ar
    38   25   31 ar
    39   26   27 2
    40   26   28 ar
    41   27   42 1
    42   28   29 ar
    43   28   44 1
    44   29   30 ar
    45   29   43 1
    46   30   31 ar
@<TRIPOS>SUBSTRUCTURE
     1 ATP         1 GROUP 0 A     ****
@<TRIPOS>MOLECULE
[[[3,4-dihydroxy-5-(6-imino-1~{H}-purin-9-yl)tetrahydrofuran-2-yl]methoxy-oxido-phosphoryl]oxy-oxido-phosphoryl] hydrogen phosphate
   44    46     1     0     0
SMALL
USER_CHARGES

@<TRIPOS>ATOM
      1 PG          9.8355   -0.5432   -1.9506 P.3       1 ATP         1.5257
      2 O1G        10.6997   -1.4559   -1.1096 O.co2     1 ATP        -0.8737
      3 O2G        10.4431    0.6013   -2.7307 O.co2     1 ATP        -0.8737
      4 O3G         8.9568   -1.4609   -2.9762 O.3       1 ATP        -0.7971
      5 PB          8.6622    1.0464    0.2494 P.3       1 ATP         1.6824
      6 O1B         9.3624    0.3508    1.3954 O.co2     1 ATP        -0.8925
      7 O2B         9.1077    2.4104   -0.2288 O.co2     1 ATP        -0.8925
      8 O3B         8.6173    0.0323   -1.0294 O.3       1 ATP        -0.8047
      9 PA          6.2528    1.9160    1.7305 P.3       1 ATP         1.5908
     10 O1A         6.3946    3.4002    1.4714 O.co2     1 ATP        -0.8932
     11 O2A         6.6251    1.3261    3.0733 O.co2     1 ATP        -0.8932
     12 O3A         7.0622    1.1002    0.5690 O.3       1 ATP        -0.8088
     13 O5'         4.7294    1.4427    1.3696 O.3       1 ATP        -0.5646
     14 C5'         4.0922    1.9801    0.2227 C.3       1 ATP         0.2204
     15 C4'         2.5944    2.0310    0.4653 C.3       1 ATP         0.0965
     16 O4'         1.9327    2.5740   -0.6889 O.3       1 ATP        -0.3907
     17 C3'         1.9685    0.6634    0.6767 C.3       1 ATP         0.0763
     18 O3'         2.1425    0.1975    1.9977 O.3       1 ATP        -0.5884
     19 C2'         0.5176    0.9128    0.3099 C.3       1 ATP         0.0784
     20 O2'        -0.2103    1.4454    1.4152 O.3       1 ATP        -0.6085
     21 C1'         0.6219    1.9765   -0.7844 C.3       1 ATP         0.2186
     22 N9          0.4237    1.4496   -2.1357 N.pl3     1 ATP        -0.1699
     23 C8          1.4069    0.9710   -2.9662 C.ar      1 ATP         0.4438
     24 N7          0.9316    0.5623   -4.1260 N.2       1 ATP        -0.6280
     25 C5         -0.4120    0.7884   -4.0344 C.ar      1 ATP         0.2109
     26 C6         -1.4353    0.5283   -5.0204 C.ar      1 ATP         0.6180
     27 N6         -1.1199    0.0176   -6.1586 N.2       1 ATP        -0.8319
     28 N1         -2.6704    0.9095   -4.5147 N.pl3     1 ATP        -0.8664
     29 C2         -2.8863    1.4571   -3.2520 C.ar      1 ATP         0.5952
     30 N3         -1.9805    1.7017   -2.3442 N.2       1 ATP        -0.5599
     31 C4         -0.7561    1.3381   -2.8112 C.ar      1 ATP         0.0076
     32 HOG3        8.3411   -1.0118   -3.5939 H         1 ATP         0.4101
     33 H5'1        4.4843    2.9854    0.0380 H         1 ATP         0.0364
     34 H5'2        4.3191    1.3446   -0.6392 H         1 ATP         0.0364
     35 H4'         2.3752    2.7029    1.3156 H         1 ATP         0.0945
     36 H3'         2.4336   -0.1217   -0.0015 H         1 ATP         0.0703
     37 HO3'        1.7160   -0.6716    2.0397 H         1 ATP         0.4099
     38 H2'         0.0316    0.0155   -0.0339 H         1 ATP         0.0676
     39 HO2'       -0.1608    0.7921    2.1351 H         1 ATP         0.4291
     40 H1'        -0.1474    2.7798   -0.6651 H         1 ATP         0.0950
     41 H8          2.4466    0.9468   -2.6694 H         1 ATP         0.1135
     42 HN62       -1.9661   -0.0965   -6.7275 H         1 ATP         0.3588
     43 H2         -3.9481    1.6825   -3.0660 H         1 ATP         0.0302
     44 H44        -3.4814    0.7753   -5.1133 H         1 ATP         0.4215
@<TRIPOS>BOND
     1    1    2 2
     2    1    3 1
     3    1    4 1
     4    1    8 1
     5    4   32 1
     6    5    6 2
     7    5    7 1
     8    5    8 1
     9    5   12 1
    10    9   10 2
    11    9   11 1
    12    9   12 1
    13    9   13 1
    14   13   14 1
    15   14   15 1
    16   14   33 1
    17   14   34 1
    18   15   16 1
    19   15   17 1
    20   15   35 1
    21   16   21 1
    22   17   18 1
    23   17   19 1
    24   17   36 1
    25   18   37 1
    26   19   20 1
    27   19   21 1
    28   19   38 1
    29   20   39 1
    30   21   22 1
    31   21   40 1
    32   22   23 ar
    33   22   31 ar
    34   23   24 ar
    35   23   41 1
    36   24   25 ar
    37   25   26 ar
    38   25   31 ar
    39   26   27 2
    40   26   28 ar
    41   27   42 1
    42   28   29 ar
    43   28   44 1
    44   29   30 ar
    45   29   43 1
    46   30   31 ar
@<TRIPOS>SUBSTRUCTURE
     1 ATP         1 GROUP 0 A     ****
@<TRIPOS>MOLECULE
[[[3,4-dihydroxy-5-(6-imino-1~{H}-purin-9-yl)tetrahydrofuran-2-yl]methoxy-oxido-phosphoryl]oxy-oxido-phosphoryl] hydrogen phosphate
   44    46     1     0     0
SMALL
USER_CHARGES

@<TRIPOS>ATOM
      1 PG          9.9611   -0.4022   -2.9119 P.3       1 ATP         1.5257
      2 O1G         9.5544   -1.2687   -4.0829 O.co2     1 ATP        -0.8737
      3 O2G        10.9555   -0.8986   -1.8860 O.co2     1 ATP        -0.8737
      4 O3G        10.4823    1.0346   -3.4863 O.3       1 ATP        -0.7971
      5 PB          8.4598    1.1837   -0.9183 P.3       1 ATP         1.6824
      6 O1B         9.0959    0.5995    0.3234 O.co2     1 ATP        -0.8925
      7 O2B         8.8440    2.5566   -1.4234 O.co2     1 ATP        -0.8925
      8 O3B         8.6182    0.1131   -2.1407 O.3       1 ATP        -0.8047
      9 PA          5.6603    1.4687   -1.8328 P.3       1 ATP         1.5908
     10 O1A         5.7257    0.4651   -2.9636 O.co2     1 ATP        -0.8932
     11 O2A         5.6969    2.9550   -2.1146 O.co2     1 ATP        -0.8932
     12 O3A         6.8369    1.1215   -0.7536 O.3       1 ATP        -0.8088
     13 O5'         4.3516    1.1575   -0.9026 O.3       1 ATP        -0.5646
     14 C5'         4.0922    1.9801    0.2227 C.3       1 ATP         0.2204
     15 C4'         2.5944    2.0310    0.4653 C.3       1 ATP         0.0965
     16 O4'         1.9327    2.5740   -0.6889 O.3       1 ATP        -0.3907
     17 C3'         1.9685    0.6634    0.6767 C.3       1 ATP         0.0763
     18 O3'         2.1425    0.1975    1.9977 O.3       1 ATP        -0.5884
     19 C2'         0.5176    0.9128    0.3099 C.3       1 ATP         0.0784
     20 O2'        -0.2103    1.4454    1.4152 O.3       1 ATP        -0.6085
     21 C1'         0.6219    1.9765   -0.7844 C.3       1 ATP         0.2186
     22 N9          0.4237    1.4496   -2.1357 N.pl3     1 ATP        -0.1699
     23 C8          1.4069    0.9710   -2.9662 C.ar      1 ATP         0.4438
     24 N7          0.9316    0.5623   -4.1260 N.2       1 ATP        -0.6280
     25 C5         -0.4120    0.7884   -4.0344 C.ar      1 ATP         0.2109
     26 C6         -1.4353    0.5283   -5.0204 C.ar      1 ATP         0.6180
     27 N6         -1.1199    0.0176   -6.1586 N.2       1 ATP        -0.8319
     28 N1         -2.6704    0.9095   -4.5147 N.pl3     1 ATP        -0.8664
     29 C2         -2.8863    1.4571   -3.2520 C.ar      1 ATP         0.5952
     30 N3         -1.9805    1.7017   -2.3442 N.2       1 ATP        -0.5599
     31 C4         -0.7561    1.3381   -2.8112 C.ar      1 ATP         0.0076
     32 HOG3       10.7838    1.7124   -2.8444 H         1 ATP         0.4101
     33 H5'1        4.6069    1.5618    1.0936 H         1 ATP         0.0364
     34 H5'2        4.4824    2.9837    0.0254 H         1 ATP         0.0364
     35 H4'         2.3752    2.7029    1.3156 H         1 ATP         0.0945
     36 H3'         2.4336   -0.1217   -0.0015 H         1 ATP         0.0703
     37 HO3'        1.7160   -0.6716    2.0397 H         1 ATP         0.4099
     38 H2'         0.0316    0.0155   -0.0339 H         1 ATP         0.0676
     39 HO2'       -0.1608    0.7921    2.1351 H         1 ATP         0.4291
     40 H1'        -0.1474    2.7798   -0.6651 H         1 ATP         0.0950
     41 H8          2.4466    0.9468   -2.6694 H         1 ATP         0.1135
     42 HN62       -1.9661   -0.0965   -6.7275 H         1 ATP         0.3588
     43 H2         -3.9481    1.6825   -3.0660 H         1 ATP         0.0302
     44 H44        -3.4814    0.7753   -5.1133 H         1 ATP         0.4215
@<TRIPOS>BOND
     1    1    2 2
     2    1    3 1
     3    1    4 1
     4    1    8 1
     5    4   32 1
     6    5    6 2
     7    5    7 1
     8    5    8 1
     9    5   12 1
    10    9   10 2
    11    9   11 1
    12    9   12 1
    13    9   13 1
    14   13   14 1
    15   14   15 1
    16   14   33 1
    17   14   34 1
    18   15   16 1
    19   15   17 1
    20   15   35 1
    21   16   21 1
    22   17   18 1
    23   17   19 1
    24   17   36 1
    25   18   37 1
    26   19   20 1
    27   19   21 1
    28   19   38 1
    29   20   39 1
    30   21   22 1
    31   21   40 1
    32   22   23 ar
    33   22   31 ar
    34   23   24 ar
    35   23   41 1
    36   24   25 ar
    37   25   26 ar
    38   25   31 ar
    39   26   27 2
    40   26   28 ar
    41   27   42 1
    42   28   29 ar
    43   28   44 1
    44   29   30 ar
    45   29   43 1
    46   30   31 ar
@<TRIPOS>SUBSTRUCTURE
     1 ATP         1 GROUP 0 A     ****
@<TRIPOS>MOLECULE
[[[3,4-dihydroxy-5-(6-imino-1~{H}-purin-9-yl)tetrahydrofuran-2-yl]methoxy-oxido-phosphoryl]oxy-oxido-phosphoryl] hydrogen phosphate
   44    46     1     0     0
SMALL
USER_CHARGES

@<TRIPOS>ATOM
      1 PG         -4.5043    5.9815   -1.6270 P.3       1 ATP         1.5257
      2 O1G        -5.3794    7.1172   -1.1452 O.co2     1 ATP        -0.8737
      3 O2G        -5.0125    4.5570   -1.6322 O.co2     1 ATP        -0.8737
      4 O3G        -3.9616    6.3438   -3.1237 O.3       1 ATP        -0.7971
      5 PB         -2.7577    5.7778    0.7503 P.3       1 ATP         1.6824
      6 O1B        -1.2577    5.7777    0.9442 O.co2     1 ATP        -0.8925
      7 O2B        -3.6547    6.6702    1.5789 O.co2     1 ATP        -0.8925
      8 O3B        -3.0811    6.0325   -0.8296 O.3       1 ATP        -0.8047
      9 PA         -3.3347    3.2338    2.1468 P.3       1 ATP         1.5908
     10 O1A        -3.8074    1.8725    1.6847 O.co2     1 ATP        -0.8932
     11 O2A        -4.0244    3.9450    3.2906 O.co2     1 ATP        -0.8932
     12 O3A        -3.2997    4.2420    0.8615 O.3       1 ATP        -0.8088
     13 O5'        -1.7336    3.1724    2.4750 O.3       1 ATP        -0.5646
     14 C5'        -0.8811    2.4285    1.6206 C.3       1 ATP         0.2204
     15 C4'        -0.1994    1.3333    2.4288 C.3       1 ATP         0.0965
     16 O4'        -1.1285    0.2356    2.5840 O.3       1 ATP        -0.3907
     17 C3'         1.0324    0.7610    1.7344 C.3       1 ATP         0.0763
     18 O3'         1.9175    0.2377    2.7247 O.3       1 ATP        -0.5884
     19 C2'         0.4468   -0.3802    0.9263 C.3       1 ATP         0.0784
     20 O2'         1.3993   -1.3703    0.5961 O.3       1 ATP        -0.6085
     21 C1'        -0.6159   -0.9100    1.8769 C.3       1 ATP         0.2186
     22 N9         -1.7127   -1.6108    1.2130 N.pl3     1 ATP        -0.1699
     23 C8         -2.0868   -2.9137    1.4327 C.ar      1 ATP         0.4438
     24 N7         -3.1125   -3.2756    0.6878 N.2       1 ATP        -0.6280
     25 C5         -3.4079   -2.1580   -0.0391 C.ar      1 ATP         0.2109
     26 C6         -4.4483   -1.9775   -1.0249 C.ar      1 ATP         0.6180
     27 N6         -5.2418   -2.9492   -1.3113 N.2       1 ATP        -0.8319
     28 N1         -4.3937   -0.6823   -1.5211 N.pl3     1 ATP        -0.8664
     29 C2         -3.4770    0.2901   -1.1271 C.ar      1 ATP         0.5952
     30 N3         -2.5289    0.1525   -0.2402 N.2       1 ATP        -0.5599
     31 C4         -2.5564   -1.1096    0.2655 C.ar      1 ATP         0.0076
     32 HOG3       -3.3761    5.7001   -3.5765 H         1 ATP         0.4101
     33 H5'1       -1.4800    1.9927    0.8146 H         1 ATP         0.0364
     34 H5'2       -0.1367    3.1040    1.1872 H         1 ATP         0.0364
     35 H4'         0.0403    1.7078    3.4343 H         1 ATP         0.0945
     36 H3'         1.5907    1.4859    1.1353 H         1 ATP         0.0703
     37 HO3'        2.6839   -0.1150    2.2479 H         1 ATP         0.4099
     38 H2'        -0.0017    0.0018    0.0005 H         1 ATP         0.0676
     39 HO2'        2.0953   -0.9375    0.0709 H         1 ATP         0.4291
     40 H1'        -0.1998   -1.6319    2.6178 H         1 ATP         0.0950
     41 H8         -1.5740   -3.5449    2.1457 H         1 ATP         0.1135
     42 HN62       -5.9117   -2.6433   -2.0256 H         1 ATP         0.3588
     43 H2         -3.6225    1.2454   -1.6553 H         1 ATP         0.0302
     44 H44        -5.0794   -0.4231   -2.2258 H         1 ATP         0.4215
@<TRIPOS>BOND
     1    1    2 2
     2    1    3 1
     3    1    4 1
     4    1    8 1
     5    4   32 1
     6    5    6 2
     7    5    7 1
     8    5    8 1
     9    5   12 1
    10    9   10 2
    11    9   11 1
    12    9   12 1
    13    9   13 1
    14   13   14 1
    15   14   15 1
    16   14   33 1
    17   14   34 1
    18   15   16 1
    19   15   17 1
    20   15   35 1
    21   16   21 1
    22   17   18 1
    23   17   19 1
    24   17   36 1
    25   18   37 1
    26   19   20 1
    27   19   21 1
    28   19   38 1
    29   20   39 1
    30   21   22 1
    31   21   40 1
    32   22   23 ar
    33   22   31 ar
    34   23   24 ar
    35   23   41 1
    36   24   25 ar
    37   25   26 ar
    38   25   31 ar
    39   26   27 2
    40   26   28 ar
    41   27   42 1
    42   28   29 ar
    43   28   44 1
    44   29   30 ar
    45   29   43 1
    46   30   31 ar
@<TRIPOS>SUBSTRUCTURE
     1 ATP         1 GROUP 0 A     ****
@<TRIPOS>MOLECULE
[[[3,4-dihydroxy-5-(6-imino-1~{H}-purin-9-yl)tetrahydrofuran-2-yl]methoxy-oxido-phosphoryl]oxy-oxido-phosphoryl] hydrogen phosphate
   44    46     1     0     0
SMALL
USER_CHARGES

@<TRIPOS>ATOM
      1 PG         -1.4293    8.1155   -0.6172 P.3       1 ATP         1.5257
      2 O1G        -2.5528    9.0883   -0.3365 O.co2     1 ATP        -0.8737
      3 O2G        -1.3635    7.3609   -1.9264 O.co2     1 ATP        -0.8737
      4 O3G        -0.0075    8.8857   -0.3907 O.3       1 ATP        -0.7971
      5 PB         -2.3833    5.8917    1.0822 P.3       1 ATP         1.6824
      6 O1B        -3.6377    6.5589    1.6006 O.co2     1 ATP        -0.8925
      7 O2B        -2.4477    4.8304    0.0066 O.co2     1 ATP        -0.8925
      8 O3B        -1.3306    7.0485    0.6138 O.3       1 ATP        -0.8047
      9 PA         -1.9156    4.0918    3.3837 P.3       1 ATP         1.5908
     10 O1A        -3.2735    4.3719    3.9903 O.co2     1 ATP        -0.8932
     11 O2A        -0.7136    3.8310    4.2651 O.co2     1 ATP        -0.8932
     12 O3A        -1.5422    5.3014    2.3507 O.3       1 ATP        -0.8088
     13 O5'        -2.0401    2.8620    2.3128 O.3       1 ATP        -0.5646
     14 C5'        -0.8811    2.4285    1.6206 C.3       1 ATP         0.2204
     15 C4'        -0.1994    1.3333    2.4288 C.3       1 ATP         0.0965
     16 O4'        -1.1285    0.2356    2.5840 O.3       1 ATP        -0.3907
     17 C3'         1.0324    0.7610    1.7344 C.3       1 ATP         0.0763
     18 O3'         1.9175    0.2377    2.7247 O.3       1 ATP        -0.5884
     19 C2'         0.4468   -0.3802    0.9263 C.3       1 ATP         0.0784
     20 O2'         1.3993   -1.3703    0.5961 O.3       1 ATP        -0.6085
     21 C1'        -0.6159   -0.9100    1.8769 C.3       1 ATP         0.2186
     22 N9         -1.7127   -1.6108    1.2130 N.pl3     1 ATP        -0.1699
     23 C8         -2.5485   -1.0808    0.2609 C.ar      1 ATP         0.4438
     24 N7         -3.4476   -1.9486   -0.1593 N.2       1 ATP        -0.6280
     25 C5         -3.1762   -3.0816    0.5530 C.ar      1 ATP         0.2109
     26 C6         -3.8510   -4.3579    0.5006 C.ar      1 ATP         0.6180
     27 N6         -4.8468   -4.5293   -0.2961 N.2       1 ATP        -0.8319
     28 N1         -3.2499   -5.2342    1.3937 N.pl3     1 ATP        -0.8664
     29 C2         -2.1646   -4.9275    2.2116 C.ar      1 ATP         0.5952
     30 N3         -1.5382   -3.7840    2.2778 N.2       1 ATP        -0.5599
     31 C4         -2.1054   -2.9018    1.4120 C.ar      1 ATP         0.0076
     32 HOG3        0.1856    9.2582    0.4960 H         1 ATP         0.4101
     33 H5'1       -1.1767    2.0502    0.6368 H         1 ATP         0.0364
     34 H5'2       -0.2080    3.2814    1.4876 H         1 ATP         0.0364
     35 H4'         0.0403    1.7078    3.4343 H         1 ATP         0.0945
     36 H3'         1.5907    1.4859    1.1353 H         1 ATP         0.0703
     37 HO3'        2.1521    0.9800    3.3017 H         1 ATP         0.4099
     38 H2'        -0.0017    0.0018    0.0005 H         1 ATP         0.0676
     39 HO2'        2.0953   -0.9375    0.0709 H         1 ATP         0.4291
     40 H1'        -0.1998   -1.6319    2.6178 H         1 ATP         0.0950
     41 H8         -2.4515   -0.0599   -0.0829 H         1 ATP         0.1135
     42 HN62       -5.1990   -5.4882   -0.2005 H         1 ATP         0.3588
     43 H2         -1.8555   -5.7783    2.8388 H         1 ATP         0.0302
     44 H44        -3.6312   -6.1750    1.4526 H         1 ATP         0.4215
@<TRIPOS>BOND
     1    1    2 2
     2    1    3 1
     3    1    4 1
     4    1    8 1
     5    4   32 1
     6    5    6 2
     7    5    7 1
     8    5    8 1
     9    5   12 1
    10    9   10 2
    11    9   11 1
    12    9   12 1
    13    9   13 1
    14   13   14 1
    15   14   15 1
    16   14   33 1
    17   14   34 1
    18   15   16 1
    19   15   17 1
    20   15   35 1
    21   16   21 1
    22   17   18 1
    23   17   19 1
    24   17   36 1
    25   18   37 1
    26   19   20 1
    27   19   21 1
    28   19   38 1
    29   20   39 1
    30   21   22 1
    31   21   40 1
    32   22   23 ar
    33   22   31 ar
    34   23   24 ar
    35   23   41 1
    36   24   25 ar
    37   25   26 ar
    38   25   31 ar
    39   26   27 2
    40   26   28 ar
    41   27   42 1
    42   28   29 ar
    43   28   44 1
    44   29   30 ar
    45   29   43 1
    46   30   31 ar
@<TRIPOS>SUBSTRUCTURE
     1 ATP         1 GROUP 0 A     ****
@<TRIPOS>MOLECULE
[[[3,4-dihydroxy-5-(6-imino-1~{H}-purin-9-yl)tetrahydrofuran-2-yl]methoxy-oxido-phosphoryl]oxy-oxido-phosphoryl] hydrogen phosphate
   44    46     1     0     0
SMALL
USER_CHARGES

@<TRIPOS>ATOM
      1 PG          2.4811    4.4712    4.0571 P.3       1 ATP         1.5257
      2 O1G         3.1922    5.5459    3.2655 O.co2     1 ATP        -0.8737
      3 O2G         1.9686    3.2188    3.3814 O.co2     1 ATP        -0.8737
      4 O3G         3.4340    4.0323    5.3082 O.3       1 ATP        -0.7971
      5 PB         -0.1155    5.8502    4.3731 P.3       1 ATP         1.6824
      6 O1B        -0.9860    6.1715    5.5675 O.co2     1 ATP        -0.8925
      7 O2B         0.2381    6.9100    3.3537 O.co2     1 ATP        -0.8925
      8 O3B         1.2625    5.1526    4.9024 O.3       1 ATP        -0.8047
      9 PA         -2.1561    4.4278    2.7707 P.3       1 ATP         1.5908
     10 O1A        -2.0925    5.3170    1.5478 O.co2     1 ATP        -0.8932
     11 O2A        -3.2978    4.5484    3.7564 O.co2     1 ATP        -0.8932
     12 O3A        -0.7509    4.5646    3.5932 O.3       1 ATP        -0.8088
     13 O5'        -2.0401    2.8620    2.3128 O.3       1 ATP        -0.5646
     14 C5'        -0.8811    2.4285    1.6206 C.3       1 ATP         0.2204
     15 C4'        -0.1994    1.3333    2.4288 C.3       1 ATP         0.0965
     16 O4'        -1.1285    0.2356    2.5840 O.3       1 ATP        -0.3907
     17 C3'         1.0324    0.7610    1.7344 C.3       1 ATP         0.0763
     18 O3'         1.9175    0.2377    2.7247 O.3       1 ATP        -0.5884
     19 C2'         0.4468   -0.3802    0.9263 C.3       1 ATP         0.0784
     20 O2'         1.3993   -1.3703    0.5961 O.3       1 ATP        -0.6085
     21 C1'        -0.6159   -0.9100    1.8769 C.3       1 ATP         0.2186
     22 N9         -1.7127   -1.6108    1.2130 N.pl3     1 ATP        -0.1699
     23 C8         -1.7690   -2.9583    0.9549 C.ar      1 ATP         0.4438
     24 N7         -2.8827   -3.3076    0.3418 N.2       1 ATP        -0.6280
     25 C5         -3.5683   -2.1351    0.2017 C.ar      1 ATP         0.2109
     26 C6         -4.8617   -1.9185   -0.4044 C.ar      1 ATP         0.6180
     27 N6         -5.5166   -2.9094   -0.8993 N.2       1 ATP        -0.8319
     28 N1         -5.1837   -0.5701   -0.3344 N.pl3     1 ATP        -0.8664
     29 C2         -4.3821    0.4180    0.2330 C.ar      1 ATP         0.5952
     30 N3         -3.2117    0.2488    0.7860 N.2       1 ATP        -0.5599
     31 C4         -2.8672   -1.0657    0.7327 C.ar      1 ATP         0.0076
     32 HOG3        3.1100    3.3379    5.9207 H         1 ATP         0.4101
     33 H5'1       -1.1767    2.0502    0.6368 H         1 ATP         0.0364
     34 H5'2       -0.2080    3.2814    1.4876 H         1 ATP         0.0364
     35 H4'         0.0403    1.7078    3.4343 H         1 ATP         0.0945
     36 H3'         1.5907    1.4859    1.1353 H         1 ATP         0.0703
     37 HO3'        2.6839   -0.1150    2.2479 H         1 ATP         0.4099
     38 H2'        -0.0017    0.0018    0.0005 H         1 ATP         0.0676
     39 HO2'        1.7495   -1.7243    1.4324 H         1 ATP         0.4291
     40 H1'        -0.1998   -1.6319    2.6178 H         1 ATP         0.0950
     41 H8         -0.9697   -3.6300    1.2371 H         1 ATP         0.1135
     42 HN62       -6.4060   -2.5723   -1.2840 H         1 ATP         0.3588
     43 H2         -4.8409    1.4176    0.1757 H         1 ATP         0.0302
     44 H44        -6.0768   -0.2826   -0.7263 H         1 ATP         0.4215
@<TRIPOS>BOND
     1    1    2 2
     2    1    3 1
     3    1    4 1
     4    1    8 1
     5    4   32 1
     6    5    6 2
     7    5    7 1
     8    5    8 1
     9    5   12 1
    10    9   10 2
    11    9   11 1
    12    9   12 1
    13    9   13 1
    14   13   14 1
    15   14   15 1
    16   14   33 1
    17   14   34 1
    18   15   16 1
    19   15   17 1
    20   15   35 1
    21   16   21 1
    22   17   18 1
    23   17   19 1
    24   17   36 1
    25   18   37 1
    26   19   20 1
    27   19   21 1
    28   19   38 1
    29   20   39 1
    30   21   22 1
    31   21   40 1
    32   22   23 ar
    33   22   31 ar
    34   23   24 ar
    35   23   41 1
    36   24   25 ar
    37   25   26 ar
    38   25   31 ar
    39   26   27 2
    40   26   28 ar
    41   27   42 1
    42   28   29 ar
    43   28   44 1
    44   29   30 ar
    45   29   43 1
    46   30   31 ar
@<TRIPOS>SUBSTRUCTURE
     1 ATP         1 GROUP 0 A     ****
@<TRIPOS>MOLECULE
[[[3,4-dihydroxy-5-(6-imino-1~{H}-purin-9-yl)tetrahydrofuran-2-yl]methoxy-oxido-phosphoryl]oxy-oxido-phosphoryl] hydrogen phosphate
   44    46     1     0     0
SMALL
USER_CHARGES

@<TRIPOS>ATOM
      1 PG         -4.2275    5.1765   -3.2457 P.3       1 ATP         1.5257
      2 O1G        -5.5989    5.7959   -3.0934 O.co2     1 ATP        -0.8737
      3 O2G        -3.9844    4.0605   -4.2371 O.co2     1 ATP        -0.8737
      4 O3G        -3.1490    6.3685   -3.5322 O.3       1 ATP        -0.7971
      5 PB         -3.5625    5.5559   -0.3896 P.3       1 ATP         1.6824
      6 O1B        -2.5043    6.6214   -0.5695 O.co2     1 ATP        -0.8925
      7 O2B        -4.9519    5.9057    0.0952 O.co2     1 ATP        -0.8925
      8 O3B        -3.6911    4.7062   -1.7778 O.3       1 ATP        -0.8047
      9 PA         -2.5400    4.4095    2.1393 P.3       1 ATP         1.5908
     10 O1A        -3.7865    4.6329    2.9680 O.co2     1 ATP        -0.8932
     11 O2A        -1.3370    5.3145    2.2921 O.co2     1 ATP        -0.8932
     12 O3A        -2.9585    4.3736    0.5603 O.3       1 ATP        -0.8088
     13 O5'        -2.0401    2.8620    2.3128 O.3       1 ATP        -0.5646
     14 C5'        -0.8811    2.4285    1.6206 C.3       1 ATP         0.2204
     15 C4'        -0.1994    1.3333    2.4288 C.3       1 ATP         0.0965
     16 O4'        -1.1285    0.2356    2.5840 O.3       1 ATP        -0.3907
     17 C3'         1.0324    0.7610    1.7344 C.3       1 ATP         0.0763
     18 O3'         1.9175    0.2377    2.7247 O.3       1 ATP        -0.5884
     19 C2'         0.4468   -0.3802    0.9263 C.3       1 ATP         0.0784
     20 O2'         1.3993   -1.3703    0.5961 O.3       1 ATP        -0.6085
     21 C1'        -0.6159   -0.9100    1.8769 C.3       1 ATP         0.2186
     22 N9         -1.7127   -1.6108    1.2130 N.pl3     1 ATP        -0.1699
     23 C8         -3.0370   -1.2489    1.2455 C.ar      1 ATP         0.4438
     24 N7         -3.8008   -2.0709    0.5534 N.2       1 ATP        -0.6280
     25 C5         -2.9295   -2.9976    0.0567 C.ar      1 ATP         0.2109
     26 C6         -3.2152   -4.1411   -0.7786 C.ar      1 ATP         0.6180
     27 N6         -4.4238   -4.3865   -1.1456 N.2       1 ATP        -0.8319
     28 N1         -2.0349   -4.8186   -1.0521 N.pl3     1 ATP        -0.8664
     29 C2         -0.7728   -4.4501   -0.5916 C.ar      1 ATP         0.5952
     30 N3         -0.4885   -3.4234    0.1630 N.2       1 ATP        -0.5599
     31 C4         -1.6274   -2.7377    0.4492 C.ar      1 ATP         0.0076
     32 HOG3       -2.2065    6.1258   -3.6550 H         1 ATP         0.4101
     33 H5'1       -1.1767    2.0502    0.6368 H         1 ATP         0.0364
     34 H5'2       -0.2080    3.2814    1.4876 H         1 ATP         0.0364
     35 H4'         0.0403    1.7078    3.4343 H         1 ATP         0.0945
     36 H3'         1.5907    1.4859    1.1353 H         1 ATP         0.0703
     37 HO3'        2.1521    0.9800    3.3017 H         1 ATP         0.4099
     38 H2'        -0.0017    0.0018    0.0005 H         1 ATP         0.0676
     39 HO2'        1.7495   -1.7243    1.4324 H         1 ATP         0.4291
     40 H1'        -0.1998   -1.6319    2.6178 H         1 ATP         0.0950
     41 H8         -3.3806   -0.3795    1.7893 H         1 ATP         0.1135
     42 HN62       -4.4384   -5.2300   -1.7295 H         1 ATP         0.3588
     43 H2          0.0180   -5.1355   -0.9348 H         1 ATP         0.0302
     44 H44        -2.0977   -5.6477   -1.6374 H         1 ATP         0.4215
@<TRIPOS>BOND
     1    1    2 2
     2    1    3 1
     3    1    4 1
     4    1    8 1
     5    4   32 1
     6    5    6 2
     7    5    7 1
     8    5    8 1
     9    5   12 1
    10    9   10 2
    11    9   11 1
    12    9   12 1
    13    9   13 1
    14   13   14 1
    15   14   15 1
    16   14   33 1
    17   14   34 1
    18   15   16 1
    19   15   17 1
    20   15   35 1
    21   16   21 1
    22   17   18 1
    23   17   19 1
    24   17   36 1
    25   18   37 1
    26   19   20 1
    27   19   21 1
    28   19   38 1
    29   20   39 1
    30   21   22 1
    31   21   40 1
    32   22   23 ar
    33   22   31 ar
    34   23   24 ar
    35   23   41 1
    36   24   25 ar
    37   25   26 ar
    38   25   31 ar
    39   26   27 2
    40   26   28 ar
    41   27   42 1
    42   28   29 ar
    43   28   44 1
    44   29   30 ar
    45   29   43 1
    46   30   31 ar
@<TRIPOS>SUBSTRUCTURE
     1 ATP         1 GROUP 0 A     ****
@<TRIPOS>MOLECULE
[[[3,4-dihydroxy-5-(6-imino-1~{H}-purin-9-yl)tetrahydrofuran-2-yl]methoxy-oxido-phosphoryl]oxy-oxido-phosphoryl] hydrogen phosphate
   44    46     1     0     0
SMALL
USER_CHARGES

@<TRIPOS>ATOM
      1 PG         10.4606    0.6254    0.0216 P.3       1 ATP         1.5257
      2 O1G        11.5563    1.6584    0.1616 O.co2     1 ATP        -0.8737
      3 O2G        10.3813   -0.2629   -1.2001 O.co2     1 ATP        -0.8737
      4 O3G        10.4676   -0.3217    1.3516 O.3       1 ATP        -0.7971
      5 PB          8.4909    2.2830    1.4764 P.3       1 ATP         1.6824
      6 O1B         8.3898    1.4291    2.7206 O.co2     1 ATP        -0.8925
      7 O2B         9.2764    3.5755    1.4751 O.co2     1 ATP        -0.8925
      8 O3B         9.0153    1.3506    0.2430 O.3       1 ATP        -0.8047
      9 PA          5.7823    3.4683    1.5918 P.3       1 ATP         1.5908
     10 O1A         6.2104    4.9193    1.6338 O.co2     1 ATP        -0.8932
     11 O2A         5.3136    2.7635    2.8462 O.co2     1 ATP        -0.8932
     12 O3A         6.9844    2.5850    0.9251 O.3       1 ATP        -0.8088
     13 O5'         4.6405    3.2699    0.4378 O.3       1 ATP        -0.5646
     14 C5'         4.0922    1.9801    0.2227 C.3       1 ATP         0.2204
     15 C4'         2.5944    2.0310    0.4653 C.3       1 ATP         0.0965
     16 O4'         1.9327    2.5740   -0.6889 O.3       1 ATP        -0.3907
     17 C3'         1.9685    0.6634    0.6767 C.3       1 ATP         0.0763
     18 O3'         2.1425    0.1975    1.9977 O.3       1 ATP        -0.5884
     19 C2'         0.5176    0.9128    0.3099 C.3       1 ATP         0.0784
     20 O2'        -0.2103    1.4454    1.4152 O.3       1 ATP        -0.6085
     21 C1'         0.6219    1.9765   -0.7844 C.3       1 ATP         0.2186
     22 N9          0.4237    1.4496   -2.1357 N.pl3     1 ATP        -0.1699
     23 C8          1.4069    0.9710   -2.9662 C.ar      1 ATP         0.4438
     24 N7          0.9316    0.5623   -4.1260 N.2       1 ATP        -0.6280
     25 C5         -0.4120    0.7884   -4.0344 C.ar      1 ATP         0.2109
     26 C6         -1.4353    0.5283   -5.0204 C.ar      1 ATP         0.6180
     27 N6         -1.1199    0.0176   -6.1586 N.2       1 ATP        -0.8319
     28 N1         -2.6704    0.9095   -4.5147 N.pl3     1 ATP        -0.8664
     29 C2         -2.8863    1.4571   -3.2520 C.ar      1 ATP         0.5952
     30 N3         -1.9805    1.7017   -2.3442 N.2       1 ATP        -0.5599
     31 C4         -0.7561    1.3381   -2.8112 C.ar      1 ATP         0.0076
     32 HOG3        9.8092   -1.0464    1.4123 H         1 ATP         0.4101
     33 H5'1        4.3028    1.6728   -0.8066 H         1 ATP         0.0364
     34 H5'2        4.5677    1.2738    0.9106 H         1 ATP         0.0364
     35 H4'         2.3752    2.7029    1.3156 H         1 ATP         0.0945
     36 H3'         2.4336   -0.1217   -0.0015 H         1 ATP         0.0703
     37 HO3'        1.7160   -0.6716    2.0397 H         1 ATP         0.4099
     38 H2'         0.0316    0.0155   -0.0339 H         1 ATP         0.0676
     39 HO2'       -0.1608    0.7921    2.1351 H         1 ATP         0.4291
     40 H1'        -0.1474    2.7798   -0.6651 H         1 ATP         0.0950
     41 H8          2.4466    0.9468   -2.6694 H         1 ATP         0.1135
     42 HN62       -1.9661   -0.0965   -6.7275 H         1 ATP         0.3588
     43 H2         -3.9481    1.6825   -3.0660 H         1 ATP         0.0302
     44 H44        -3.4814    0.7753   -5.1133 H         1 ATP         0.4215
@<TRIPOS>BOND
     1    1    2 2
     2    1    3 1
     3    1    4 1
     4    1    8 1
     5    4   32 1
     6    5    6 2
     7    5    7 1
     8    5    8 1
     9    5   12 1
    10    9   10 2
    11    9   11 1
    12    9   12 1
    13    9   13 1
    14   13   14 1
    15   14   15 1
    16   14   33 1
    17   14   34 1
    18   15   16 1
    19   15   17 1
    20   15   35 1
    21   16   21 1
    22   17   18 1
    23   17   19 1
    24   17   36 1
    25   18   37 1
    26   19   20 1
    27   19   21 1
    28   19   38 1
    29   20   39 1
    30   21   22 1
    31   21   40 1
    32   22   23 ar
    33   22   31 ar
    34   23   24 ar
    35   23   41 1
    36   24   25 ar
    37   25   26 ar
    38   25   31 ar
    39   26   27 2
    40   26   28 ar
    41   27   42 1
    42   28   29 ar
    43   28   44 1
    44   29   30 ar
    45   29   43 1
    46   30   31 ar
@<TRIPOS>SUBSTRUCTURE
     1 ATP         1 GROUP 0 A     ****
@<TRIPOS>MOLECULE
[[[3,4-dihydroxy-5-(6-imino-1~{H}-purin-9-yl)tetrahydrofuran-2-yl]methoxy-oxido-phosphoryl]oxy-oxido-phosphoryl] hydrogen phosphate
   44    46     1     0     0
SMALL
USER_CHARGES

@<TRIPOS>ATOM
      1 PG          7.1554    3.6827    5.5542 P.3       1 ATP         1.5257
      2 O1G         8.1583    2.5583    5.4223 O.co2     1 ATP        -0.8737
      3 O2G         6.2300    3.7627    6.7480 O.co2     1 ATP        -0.8737
      4 O3G         7.9481    5.1035    5.4166 O.3       1 ATP        -0.7971
      5 PB          5.1554    4.8686    3.7275 P.3       1 ATP         1.6824
      6 O1B         3.9584    4.7660    4.6462 O.co2     1 ATP        -0.8925
      7 O2B         5.8540    6.1899    3.4955 O.co2     1 ATP        -0.8925
      8 O3B         6.2654    3.7636    4.1886 O.3       1 ATP        -0.8047
      9 PA          5.6979    3.9301    0.9743 P.3       1 ATP         1.5908
     10 O1A         6.7120    2.8652    1.3318 O.co2     1 ATP        -0.8932
     11 O2A         6.1406    5.2577    0.3987 O.co2     1 ATP        -0.8932
     12 O3A         4.7614    4.2234    2.2806 O.3       1 ATP        -0.8088
     13 O5'         4.5670    3.2937   -0.0211 O.3       1 ATP        -0.5646
     14 C5'         4.0922    1.9801    0.2227 C.3       1 ATP         0.2204
     15 C4'         2.5944    2.0310    0.4653 C.3       1 ATP         0.0965
     16 O4'         1.9327    2.5740   -0.6889 O.3       1 ATP        -0.3907
     17 C3'         1.9685    0.6634    0.6767 C.3       1 ATP         0.0763
     18 O3'         2.1425    0.1975    1.9977 O.3       1 ATP        -0.5884
     19 C2'         0.5176    0.9128    0.3099 C.3       1 ATP         0.0784
     20 O2'        -0.2103    1.4454    1.4152 O.3       1 ATP        -0.6085
     21 C1'         0.6219    1.9765   -0.7844 C.3       1 ATP         0.2186
     22 N9          0.4237    1.4496   -2.1357 N.pl3     1 ATP        -0.1699
     23 C8          1.4069    0.9710   -2.9662 C.ar      1 ATP         0.4438
     24 N7          0.9316    0.5623   -4.1260 N.2       1 ATP        -0.6280
     25 C5         -0.4120    0.7884   -4.0344 C.ar      1 ATP         0.2109
     26 C6         -1.4353    0.5283   -5.0204 C.ar      1 ATP         0.6180
     27 N6         -1.1199    0.0176   -6.1586 N.2       1 ATP        -0.8319
     28 N1         -2.6704    0.9095   -4.5147 N.pl3     1 ATP        -0.8664
     29 C2         -2.8863    1.4571   -3.2520 C.ar      1 ATP         0.5952
     30 N3         -1.9805    1.7017   -2.3442 N.2       1 ATP        -0.5599
     31 C4         -0.7561    1.3381   -2.8112 C.ar      1 ATP         0.0076
     32 HOG3        7.4311    5.9347    5.4810 H         1 ATP         0.4101
     33 H5'1        4.3179    1.3548   -0.6470 H         1 ATP         0.0364
     34 H5'2        4.6083    1.5737    1.0983 H         1 ATP         0.0364
     35 H4'         2.3752    2.7029    1.3156 H         1 ATP         0.0945
     36 H3'         2.4336   -0.1217   -0.0015 H         1 ATP         0.0703
     37 HO3'        1.7160   -0.6716    2.0397 H         1 ATP         0.4099
     38 H2'         0.0316    0.0155   -0.0339 H         1 ATP         0.0676
     39 HO2'       -0.1608    0.7921    2.1351 H         1 ATP         0.4291
     40 H1'        -0.1474    2.7798   -0.6651 H         1 ATP         0.0950
     41 H8          2.4466    0.9468   -2.6694 H         1 ATP         0.1135
     42 HN62       -1.9661   -0.0965   -6.7275 H         1 ATP         0.3588
     43 H2         -3.9481    1.6825   -3.0660 H         1 ATP         0.0302
     44 H44        -3.4814    0.7753   -5.1133 H         1 ATP         0.4215
@<TRIPOS>BOND
     1    1    2 2
     2    1    3 1
     3    1    4 1
     4    1    8 1
     5    4   32 1
     6    5    6 2
     7    5    7 1
     8    5    8 1
     9    5   12 1
    10    9   10 2
    11    9   11 1
    12    9   12 1
    13    9   13 1
    14   13   14 1
    15   14   15 1
    16   14   33 1
    17   14   34 1
    18   15   16 1
    19   15   17 1
    20   15   35 1
    21   16   21 1
    22   17   18 1
    23   17   19 1
    24   17   36 1
    25   18   37 1
    26   19   20 1
    27   19   21 1
    28   19   38 1
    29   20   39 1
    30   21   22 1
    31   21   40 1
    32   22   23 ar
    33   22   31 ar
    34   23   24 ar
    35   23   41 1
    36   24   25 ar
    37   25   26 ar
    38   25   31 ar
    39   26   27 2
    40   26   28 ar
    41   27   42 1
    42   28   29 ar
    43   28   44 1
    44   29   30 ar
    45   29   43 1
    46   30   31 ar
@<TRIPOS>SUBSTRUCTURE
     1 ATP         1 GROUP 0 A     ****
@<TRIPOS>MOLECULE
[[[3,4-dihydroxy-5-(6-imino-1~{H}-purin-9-yl)tetrahydrofuran-2-yl]methoxy-oxido-phosphoryl]oxy-oxido-phosphoryl] hydrogen phosphate
   44    46     1     0     0
SMALL
USER_CHARGES

@<TRIPOS>ATOM
      1 PG         10.3411    5.1961    0.9673 P.3       1 ATP         1.5257
      2 O1G        10.1942    6.6291    0.5066 O.co2     1 ATP        -0.8737
      3 O2G        11.4611    4.3231    0.4464 O.co2     1 ATP        -0.8737
      4 O3G        10.3858    5.1780    2.5993 O.3       1 ATP        -0.7971
      5 PB          8.4691    2.9199    1.2084 P.3       1 ATP         1.6824
      6 O1B         9.2794    1.9098    0.4269 O.co2     1 ATP        -0.8925
      7 O2B         8.4045    2.8723    2.7187 O.co2     1 ATP        -0.8925
      8 O3B         8.9215    4.4204    0.7509 O.3       1 ATP        -0.8047
      9 PA          5.6979    3.9301    0.9743 P.3       1 ATP         1.5908
     10 O1A         6.0432    5.3304    0.5156 O.co2     1 ATP        -0.8932
     11 O2A         5.2724    3.6668    2.4023 O.co2     1 ATP        -0.8932
     12 O3A         6.9468    2.9382    0.6193 O.3       1 ATP        -0.8088
     13 O5'         4.5670    3.2937   -0.0211 O.3       1 ATP        -0.5646
     14 C5'         4.0922    1.9801    0.2227 C.3       1 ATP         0.2204
     15 C4'         2.5944    2.0310    0.4653 C.3       1 ATP         0.0965
     16 O4'         1.9327    2.5740   -0.6889 O.3       1 ATP        -0.3907
     17 C3'         1.9685    0.6634    0.6767 C.3       1 ATP         0.0763
     18 O3'         2.1425    0.1975    1.9977 O.3       1 ATP        -0.5884
     19 C2'         0.5176    0.9128    0.3099 C.3       1 ATP         0.0784
     20 O2'        -0.2103    1.4454    1.4152 O.3       1 ATP        -0.6085
     21 C1'         0.6219    1.9765   -0.7844 C.3       1 ATP         0.2186
     22 N9          0.4237    1.4496   -2.1357 N.pl3     1 ATP        -0.1699
     23 C8          1.4069    0.9710   -2.9662 C.ar      1 ATP         0.4438
     24 N7          0.9316    0.5623   -4.1260 N.2       1 ATP        -0.6280
     25 C5         -0.4120    0.7884   -4.0344 C.ar      1 ATP         0.2109
     26 C6         -1.4353    0.5283   -5.0204 C.ar      1 ATP         0.6180
     27 N6         -1.1199    0.0176   -6.1586 N.2       1 ATP        -0.8319
     28 N1         -2.6704    0.9095   -4.5147 N.pl3     1 ATP        -0.8664
     29 C2         -2.8863    1.4571   -3.2520 C.ar      1 ATP         0.5952
     30 N3         -1.9805    1.7017   -2.3442 N.2       1 ATP        -0.5599
     31 C4         -0.7561    1.3381   -2.8112 C.ar      1 ATP         0.0076
     32 HOG3       10.4791    4.3139    3.0543 H         1 ATP         0.4101
     33 H5'1        4.3179    1.3548   -0.6470 H         1 ATP         0.0364
     34 H5'2        4.6083    1.5737    1.0983 H         1 ATP         0.0364
     35 H4'         2.3752    2.7029    1.3156 H         1 ATP         0.0945
     36 H3'         2.4336   -0.1217   -0.0015 H         1 ATP         0.0703
     37 HO3'        1.7160   -0.6716    2.0397 H         1 ATP         0.4099
     38 H2'         0.0316    0.0155   -0.0339 H         1 ATP         0.0676
     39 HO2'       -0.1608    0.7921    2.1351 H         1 ATP         0.4291
     40 H1'        -0.1474    2.7798   -0.6651 H         1 ATP         0.0950
     41 H8          2.4466    0.9468   -2.6694 H         1 ATP         0.1135
     42 HN62       -1.9661   -0.0965   -6.7275 H         1 ATP         0.3588
     43 H2         -3.9481    1.6825   -3.0660 H         1 ATP         0.0302
     44 H44        -3.4814    0.7753   -5.1133 H         1 ATP         0.4215
@<TRIPOS>BOND
     1    1    2 2
     2    1    3 1
     3    1    4 1
     4    1    8 1
     5    4   32 1
     6    5    6 2
     7    5    7 1
     8    5    8 1
     9    5   12 1
    10    9   10 2
    11    9   11 1
    12    9   12 1
    13    9   13 1
    14   13   14 1
    15   14   15 1
    16   14   33 1
    17   14   34 1
    18   15   16 1
    19   15   17 1
    20   15   35 1
    21   16   21 1
    22   17   18 1
    23   17   19 1
    24   17   36 1
    25   18   37 1
    26   19   20 1
    27   19   21 1
    28   19   38 1
    29   20   39 1
    30   21   22 1
    31   21   40 1
    32   22   23 ar
    33   22   31 ar
    34   23   24 ar
    35   23   41 1
    36   24   25 ar
    37   25   26 ar
    38   25   31 ar
    39   26   27 2
    40   26   28 ar
    41   27   42 1
    42   28   29 ar
    43   28   44 1
    44   29   30 ar
    45   29   43 1
    46   30   31 ar
@<TRIPOS>SUBSTRUCTURE
     1 ATP         1 GROUP 0 A     ****
@<TRIPOS>MOLECULE
[[[3,4-dihydroxy-5-(6-imino-1~{H}-purin-9-yl)tetrahydrofuran-2-yl]methoxy-oxido-phosphoryl]oxy-oxido-phosphoryl] hydrogen phosphate
   44    46     1     0     0
SMALL
USER_CHARGES

@<TRIPOS>ATOM
      1 PG          9.7661    0.1070   -1.9142 P.3       1 ATP         1.5257
      2 O1G        10.5239    1.2612   -2.5316 O.co2     1 ATP        -0.8737
      3 O2G         9.1918   -0.9954   -2.7759 O.co2     1 ATP        -0.8737
      4 O3G        10.7028   -0.5708   -0.7613 O.3       1 ATP        -0.7971
      5 PB          8.6716    1.7810    0.2637 P.3       1 ATP         1.6824
      6 O1B         9.4548    1.1665    1.4023 O.co2     1 ATP        -0.8925
      7 O2B         9.0496    3.1286   -0.3096 O.co2     1 ATP        -0.8925
      8 O3B         8.5851    0.6990   -0.9559 O.3       1 ATP        -0.8047
      9 PA          6.1203    0.6016    1.1881 P.3       1 ATP         1.5908
     10 O1A         6.6064    0.1323    2.5423 O.co2     1 ATP        -0.8932
     11 O2A         5.9344   -0.3788    0.0506 O.co2     1 ATP        -0.8932
     12 O3A         7.0912    1.8099    0.6713 O.3       1 ATP        -0.8088
     13 O5'         4.7294    1.4427    1.3696 O.3       1 ATP        -0.5646
     14 C5'         4.0922    1.9801    0.2227 C.3       1 ATP         0.2204
     15 C4'         2.5944    2.0310    0.4653 C.3       1 ATP         0.0965
     16 O4'         1.9327    2.5740   -0.6889 O.3       1 ATP        -0.3907
     17 C3'         1.9685    0.6634    0.6767 C.3       1 ATP         0.0763
     18 O3'         2.1425    0.1975    1.9977 O.3       1 ATP        -0.5884
     19 C2'         0.5176    0.9128    0.3099 C.3       1 ATP         0.0784
     20 O2'        -0.2103    1.4454    1.4152 O.3       1 ATP        -0.6085
     21 C1'         0.6219    1.9765   -0.7844 C.3       1 ATP         0.2186
     22 N9          0.4237    1.4496   -2.1357 N.pl3     1 ATP        -0.1699
     23 C8          1.4069    0.9710   -2.9662 C.ar      1 ATP         0.4438
     24 N7          0.9316    0.5623   -4.1260 N.2       1 ATP        -0.6280
     25 C5         -0.4120    0.7884   -4.0344 C.ar      1 ATP         0.2109
     26 C6         -1.4353    0.5283   -5.0204 C.ar      1 ATP         0.6180
     27 N6         -1.1199    0.0176   -6.1586 N.2       1 ATP        -0.8319
     28 N1         -2.6704    0.9095   -4.5147 N.pl3     1 ATP        -0.8664
     29 C2         -2.8863    1.4571   -3.2520 C.ar      1 ATP         0.5952
     30 N3         -1.9805    1.7017   -2.3442 N.2       1 ATP        -0.5599
     31 C4         -0.7561    1.3381   -2.8112 C.ar      1 ATP         0.0076
     32 HOG3       10.3490   -1.3390   -0.2643 H         1 ATP         0.4101
     33 H5'1        4.4843    2.9854    0.0380 H         1 ATP         0.0364
     34 H5'2        4.3191    1.3446   -0.6392 H         1 ATP         0.0364
     35 H4'         2.3752    2.7029    1.3156 H         1 ATP         0.0945
     36 H3'         2.4336   -0.1217   -0.0015 H         1 ATP         0.0703
     37 HO3'        3.0987    0.1465    2.1461 H         1 ATP         0.4099
     38 H2'         0.0316    0.0155   -0.0339 H         1 ATP         0.0676
     39 HO2'       -1.1270    1.5823    1.1180 H         1 ATP         0.4291
     40 H1'        -0.1474    2.7798   -0.6651 H         1 ATP         0.0950
     41 H8          2.4466    0.9468   -2.6694 H         1 ATP         0.1135
     42 HN62       -1.9661   -0.0965   -6.7275 H         1 ATP         0.3588
     43 H2         -3.9481    1.6825   -3.0660 H         1 ATP         0.0302
     44 H44        -3.4814    0.7753   -5.1133 H         1 ATP         0.4215
@<TRIPOS>BOND
     1    1    2 2
     2    1    3 1
     3    1    4 1
     4    1    8 1
     5    4   32 1
     6    5    6 2
     7    5    7 1
     8    5    8 1
     9    5   12 1
    10    9   10 2
    11    9   11 1
    12    9   12 1
    13    9   13 1
    14   13   14 1
    15   14   15 1
    16   14   33 1
    17   14   34 1
    18   15   16 1
    19   15   17 1
    20   15   35 1
    21   16   21 1
    22   17   18 1
    23   17   19 1
    24   17   36 1
    25   18   37 1
    26   19   20 1
    27   19   21 1
    28   19   38 1
    29   20   39 1
    30   21   22 1
    31   21   40 1
    32   22   23 ar
    33   22   31 ar
    34   23   24 ar
    35   23   41 1
    36   24   25 ar
    37   25   26 ar
    38   25   31 ar
    39   26   27 2
    40   26   28 ar
    41   27   42 1
    42   28   29 ar
    43   28   44 1
    44   29   30 ar
    45   29   43 1
    46   30   31 ar
@<TRIPOS>SUBSTRUCTURE
     1 ATP         1 GROUP 0 A     ****
@<TRIPOS>MOLECULE
[[[3,4-dihydroxy-5-(6-imino-1~{H}-purin-9-yl)tetrahydrofuran-2-yl]methoxy-oxido-phosphoryl]oxy-oxido-phosphoryl] hydrogen phosphate
   44    46     1     0     0
SMALL
USER_CHARGES

@<TRIPOS>ATOM
      1 PG         -5.4864    6.7280    2.6264 P.3       1 ATP         1.5257
      2 O1G        -5.9979    5.9997    3.8493 O.co2     1 ATP        -0.8737
      3 O2G        -6.3671    6.9215    1.4120 O.co2     1 ATP        -0.8737
      4 O3G        -4.9170    8.1859    3.0914 O.3       1 ATP        -0.7971
      5 PB         -3.0240    6.5250    1.0020 P.3       1 ATP         1.6824
      6 O1B        -3.6866    6.3774   -0.3496 O.co2     1 ATP        -0.8925
      7 O2B        -2.3946    7.8330    1.4272 O.co2     1 ATP        -0.8925
      8 O3B        -4.0776    6.0516    2.1559 O.3       1 ATP        -0.8047
      9 PA         -1.0308    4.9148    2.4816 P.3       1 ATP         1.5908
     10 O1A        -1.9588    4.4113    3.5658 O.co2     1 ATP        -0.8932
     11 O2A        -0.0473    6.0301    2.7617 O.co2     1 ATP        -0.8932
     12 O3A        -1.9234    5.3324    1.1783 O.3       1 ATP        -0.8088
     13 O5'        -0.2062    3.6557    1.8417 O.3       1 ATP        -0.5646
     14 C5'        -0.8811    2.4285    1.6206 C.3       1 ATP         0.2204
     15 C4'        -0.1994    1.3333    2.4288 C.3       1 ATP         0.0965
     16 O4'        -1.1285    0.2356    2.5840 O.3       1 ATP        -0.3907
     17 C3'         1.0324    0.7610    1.7344 C.3       1 ATP         0.0763
     18 O3'         1.9175    0.2377    2.7247 O.3       1 ATP        -0.5884
     19 C2'         0.4468   -0.3802    0.9263 C.3       1 ATP         0.0784
     20 O2'         1.3993   -1.3703    0.5961 O.3       1 ATP        -0.6085
     21 C1'        -0.6159   -0.9100    1.8769 C.3       1 ATP         0.2186
     22 N9         -1.7127   -1.6108    1.2130 N.pl3     1 ATP        -0.1699
     23 C8         -2.0868   -2.9137    1.4327 C.ar      1 ATP         0.4438
     24 N7         -3.1125   -3.2756    0.6878 N.2       1 ATP        -0.6280
     25 C5         -3.4079   -2.1580   -0.0391 C.ar      1 ATP         0.2109
     26 C6         -4.4483   -1.9775   -1.0249 C.ar      1 ATP         0.6180
     27 N6         -5.2418   -2.9492   -1.3113 N.2       1 ATP        -0.8319
     28 N1         -4.3937   -0.6823   -1.5211 N.pl3     1 ATP        -0.8664
     29 C2         -3.4770    0.2901   -1.1271 C.ar      1 ATP         0.5952
     30 N3         -2.5289    0.1525   -0.2402 N.2       1 ATP        -0.5599
     31 C4         -2.5564   -1.1096    0.2655 C.ar      1 ATP         0.0076
     32 HOG3       -4.5472    8.7829    2.4064 H         1 ATP         0.4101
     33 H5'1       -1.9256    2.5380    1.9293 H         1 ATP         0.0364
     34 H5'2       -0.8474    2.1930    0.5521 H         1 ATP         0.0364
     35 H4'         0.0403    1.7078    3.4343 H         1 ATP         0.0945
     36 H3'         1.5907    1.4859    1.1353 H         1 ATP         0.0703
     37 HO3'        2.6839   -0.1150    2.2479 H         1 ATP         0.4099
     38 H2'        -0.0017    0.0018    0.0005 H         1 ATP         0.0676
     39 HO2'        0.9369   -2.0558    0.0825 H         1 ATP         0.4291
     40 H1'        -0.1998   -1.6319    2.6178 H         1 ATP         0.0950
     41 H8         -1.5740   -3.5449    2.1457 H         1 ATP         0.1135
     42 HN62       -5.9117   -2.6433   -2.0256 H         1 ATP         0.3588
     43 H2         -3.6225    1.2454   -1.6553 H         1 ATP         0.0302
     44 H44        -5.0794   -0.4231   -2.2258 H         1 ATP         0.4215
@<TRIPOS>BOND
     1    1    2 2
     2    1    3 1
     3    1    4 1
     4    1    8 1
     5    4   32 1
     6    5    6 2
     7    5    7 1
     8    5    8 1
     9    5   12 1
    10    9   10 2
    11    9   11 1
    12    9   12 1
    13    9   13 1
    14   13   14 1
    15   14   15 1
    16   14   33 1
    17   14   34 1
    18   15   16 1
    19   15   17 1
    20   15   35 1
    21   16   21 1
    22   17   18 1
    23   17   19 1
    24   17   36 1
    25   18   37 1
    26   19   20 1
    27   19   21 1
    28   19   38 1
    29   20   39 1
    30   21   22 1
    31   21   40 1
    32   22   23 ar
    33   22   31 ar
    34   23   24 ar
    35   23   41 1
    36   24   25 ar
    37   25   26 ar
    38   25   31 ar
    39   26   27 2
    40   26   28 ar
    41   27   42 1
    42   28   29 ar
    43   28   44 1
    44   29   30 ar
    45   29   43 1
    46   30   31 ar
@<TRIPOS>SUBSTRUCTURE
     1 ATP         1 GROUP 0 A     ****
@<TRIPOS>MOLECULE
[[[3,4-dihydroxy-5-(6-imino-1~{H}-purin-9-yl)tetrahydrofuran-2-yl]methoxy-oxido-phosphoryl]oxy-oxido-phosphoryl] hydrogen phosphate
   44    46     1     0     0
SMALL
USER_CHARGES

@<TRIPOS>ATOM
      1 PG         -6.7596    6.4205    1.0169 P.3       1 ATP         1.5257
      2 O1G        -7.0330    7.0737    2.3533 O.co2     1 ATP        -0.8737
      3 O2G        -7.8067    5.5625    0.3423 O.co2     1 ATP        -0.8737
      4 O3G        -6.2774    7.5728   -0.0346 O.3       1 ATP        -0.7971
      5 PB         -4.5240    4.8101   -0.0567 P.3       1 ATP         1.6824
      6 O1B        -5.3411    3.6385   -0.5540 O.co2     1 ATP        -0.8925
      7 O2B        -3.9736    5.8437   -1.0139 O.co2     1 ATP        -0.8925
      8 O3B        -5.3661    5.5763    1.1136 O.3       1 ATP        -0.8047
      9 PA         -3.3347    3.2338    2.1468 P.3       1 ATP         1.5908
     10 O1A        -3.8074    1.8725    1.6847 O.co2     1 ATP        -0.8932
     11 O2A        -4.0244    3.9450    3.2906 O.co2     1 ATP        -0.8932
     12 O3A        -3.2997    4.2420    0.8615 O.3       1 ATP        -0.8088
     13 O5'        -1.7336    3.1724    2.4750 O.3       1 ATP        -0.5646
     14 C5'        -0.8811    2.4285    1.6206 C.3       1 ATP         0.2204
     15 C4'        -0.1994    1.3333    2.4288 C.3       1 ATP         0.0965
     16 O4'        -1.1285    0.2356    2.5840 O.3       1 ATP        -0.3907
     17 C3'         1.0324    0.7610    1.7344 C.3       1 ATP         0.0763
     18 O3'         1.9175    0.2377    2.7247 O.3       1 ATP        -0.5884
     19 C2'         0.4468   -0.3802    0.9263 C.3       1 ATP         0.0784
     20 O2'         1.3993   -1.3703    0.5961 O.3       1 ATP        -0.6085
     21 C1'        -0.6159   -0.9100    1.8769 C.3       1 ATP         0.2186
     22 N9         -1.7127   -1.6108    1.2130 N.pl3     1 ATP        -0.1699
     23 C8         -2.0868   -2.9137    1.4327 C.ar      1 ATP         0.4438
     24 N7         -3.1125   -3.2756    0.6878 N.2       1 ATP        -0.6280
     25 C5         -3.4079   -2.1580   -0.0391 C.ar      1 ATP         0.2109
     26 C6         -4.4483   -1.9775   -1.0249 C.ar      1 ATP         0.6180
     27 N6         -5.2418   -2.9492   -1.3113 N.2       1 ATP        -0.8319
     28 N1         -4.3937   -0.6823   -1.5211 N.pl3     1 ATP        -0.8664
     29 C2         -3.4770    0.2901   -1.1271 C.ar      1 ATP         0.5952
     30 N3         -2.5289    0.1525   -0.2402 N.2       1 ATP        -0.5599
     31 C4         -2.5564   -1.1096    0.2655 C.ar      1 ATP         0.0076
     32 HOG3       -6.0604    7.3053   -0.9531 H         1 ATP         0.4101
     33 H5'1       -1.4800    1.9927    0.8146 H         1 ATP         0.0364
     34 H5'2       -0.1367    3.1040    1.1872 H         1 ATP         0.0364
     35 H4'         0.0403    1.7078    3.4343 H         1 ATP         0.0945
     36 H3'         1.5907    1.4859    1.1353 H         1 ATP         0.0703
     37 HO3'        2.6839   -0.1150    2.2479 H         1 ATP         0.4099
     38 H2'        -0.0017    0.0018    0.0005 H         1 ATP         0.0676
     39 HO2'        2.0953   -0.9375    0.0709 H         1 ATP         0.4291
     40 H1'        -0.1998   -1.6319    2.6178 H         1 ATP         0.0950
     41 H8         -1.5740   -3.5449    2.1457 H         1 ATP         0.1135
     42 HN62       -5.9117   -2.6433   -2.0256 H         1 ATP         0.3588
     43 H2         -3.6225    1.2454   -1.6553 H         1 ATP         0.0302
     44 H44        -5.0794   -0.4231   -2.2258 H         1 ATP         0.4215
@<TRIPOS>BOND
     1    1    2 2
     2    1    3 1
     3    1    4 1
     4    1    8 1
     5    4   32 1
     6    5    6 2
     7    5    7 1
     8    5    8 1
     9    5   12 1
    10    9   10 2
    11    9   11 1
    12    9   12 1
    13    9   13 1
    14   13   14 1
    15   14   15 1
    16   14   33 1
    17   14   34 1
    18   15   16 1
    19   15   17 1
    20   15   35 1
    21   16   21 1
    22   17   18 1
    23   17   19 1
    24   17   36 1
    25   18   37 1
    26   19   20 1
    27   19   21 1
    28   19   38 1
    29   20   39 1
    30   21   22 1
    31   21   40 1
    32   22   23 ar
    33   22   31 ar
    34   23   24 ar
    35   23   41 1
    36   24   25 ar
    37   25   26 ar
    38   25   31 ar
    39   26   27 2
    40   26   28 ar
    41   27   42 1
    42   28   29 ar
    43   28   44 1
    44   29   30 ar
    45   29   43 1
    46   30   31 ar
@<TRIPOS>SUBSTRUCTURE
     1 ATP         1 GROUP 0 A     ****
@<TRIPOS>MOLECULE
[[[3,4-dihydroxy-5-(6-imino-1~{H}-purin-9-yl)tetrahydrofuran-2-yl]methoxy-oxido-phosphoryl]oxy-oxido-phosphoryl] hydrogen phosphate
   44    46     1     0     0
SMALL
USER_CHARGES

@<TRIPOS>ATOM
      1 PG         -0.4624    9.1150    3.4778 P.3       1 ATP         1.5257
      2 O1G        -1.1494    9.9599    2.4282 O.co2     1 ATP        -0.8737
      3 O2G         0.9536    9.4180    3.9148 O.co2     1 ATP        -0.8737
      4 O3G        -1.4137    9.0600    4.8036 O.3       1 ATP        -0.7971
      5 PB          0.1328    6.7663    1.7829 P.3       1 ATP         1.6824
      6 O1B        -0.4753    7.2857    0.4991 O.co2     1 ATP        -0.8925
      7 O2B         1.6311    6.7454    1.9876 O.co2     1 ATP        -0.8925
      8 O3B        -0.5567    7.5452    3.0412 O.3       1 ATP        -0.8047
      9 PA         -2.0037    4.7528    2.1522 P.3       1 ATP         1.5908
     10 O1A        -2.6322    4.8876    0.7821 O.co2     1 ATP        -0.8932
     11 O2A        -2.6544    5.3785    3.3666 O.co2     1 ATP        -0.8932
     12 O3A        -0.4564    5.2719    2.0738 O.3       1 ATP        -0.8088
     13 O5'        -1.7336    3.1724    2.4750 O.3       1 ATP        -0.5646
     14 C5'        -0.8811    2.4285    1.6206 C.3       1 ATP         0.2204
     15 C4'        -0.1994    1.3333    2.4288 C.3       1 ATP         0.0965
     16 O4'        -1.1285    0.2356    2.5840 O.3       1 ATP        -0.3907
     17 C3'         1.0324    0.7610    1.7344 C.3       1 ATP         0.0763
     18 O3'         1.9175    0.2377    2.7247 O.3       1 ATP        -0.5884
     19 C2'         0.4468   -0.3802    0.9263 C.3       1 ATP         0.0784
     20 O2'         1.3993   -1.3703    0.5961 O.3       1 ATP        -0.6085
     21 C1'        -0.6159   -0.9100    1.8769 C.3       1 ATP         0.2186
     22 N9         -1.7127   -1.6108    1.2130 N.pl3     1 ATP        -0.1699
     23 C8         -3.0370   -1.2489    1.2455 C.ar      1 ATP         0.4438
     24 N7         -3.8008   -2.0709    0.5534 N.2       1 ATP        -0.6280
     25 C5         -2.9295   -2.9976    0.0567 C.ar      1 ATP         0.2109
     26 C6         -3.2152   -4.1411   -0.7786 C.ar      1 ATP         0.6180
     27 N6         -4.4238   -4.3865   -1.1456 N.2       1 ATP        -0.8319
     28 N1         -2.0349   -4.8186   -1.0521 N.pl3     1 ATP        -0.8664
     29 C2         -0.7728   -4.4501   -0.5916 C.ar      1 ATP         0.5952
     30 N3         -0.4885   -3.4234    0.1630 N.2       1 ATP        -0.5599
     31 C4         -1.6274   -2.7377    0.4492 C.ar      1 ATP         0.0076
     32 HOG3       -1.1040    8.5457    5.5794 H         1 ATP         0.4101
     33 H5'1       -1.4800    1.9927    0.8146 H         1 ATP         0.0364
     34 H5'2       -0.1367    3.1040    1.1872 H         1 ATP         0.0364
     35 H4'         0.0403    1.7078    3.4343 H         1 ATP         0.0945
     36 H3'         1.5907    1.4859    1.1353 H         1 ATP         0.0703
     37 HO3'        2.6839   -0.1150    2.2479 H         1 ATP         0.4099
     38 H2'        -0.0017    0.0018    0.0005 H         1 ATP         0.0676
     39 HO2'        2.0953   -0.9375    0.0709 H         1 ATP         0.4291
     40 H1'        -0.1998   -1.6319    2.6178 H         1 ATP         0.0950
     41 H8         -3.3806   -0.3795    1.7893 H         1 ATP         0.1135
     42 HN62       -4.4384   -5.2300   -1.7295 H         1 ATP         0.3588
     43 H2          0.0180   -5.1355   -0.9348 H         1 ATP         0.0302
     44 H44        -2.0977   -5.6477   -1.6374 H         1 ATP         0.4215
@<TRIPOS>BOND
     1    1    2 2
     2    1    3 1
     3    1    4 1
     4    1    8 1
     5    4   32 1
     6    5    6 2
     7    5    7 1
     8    5    8 1
     9    5   12 1
    10    9   10 2
    11    9   11 1
    12    9   12 1
    13    9   13 1
    14   13   14 1
    15   14   15 1
    16   14   33 1
    17   14   34 1
    18   15   16 1
    19   15   17 1
    20   15   35 1
    21   16   21 1
    22   17   18 1
    23   17   19 1
    24   17   36 1
    25   18   37 1
    26   19   20 1
    27   19   21 1
    28   19   38 1
    29   20   39 1
    30   21   22 1
    31   21   40 1
    32   22   23 ar
    33   22   31 ar
    34   23   24 ar
    35   23   41 1
    36   24   25 ar
    37   25   26 ar
    38   25   31 ar
    39   26   27 2
    40   26   28 ar
    41   27   42 1
    42   28   29 ar
    43   28   44 1
    44   29   30 ar
    45   29   43 1
    46   30   31 ar
@<TRIPOS>SUBSTRUCTURE
     1 ATP         1 GROUP 0 A     ****
@<TRIPOS>MOLECULE
[[[3,4-dihydroxy-5-(6-imino-1~{H}-purin-9-yl)tetrahydrofuran-2-yl]methoxy-oxido-phosphoryl]oxy-oxido-phosphoryl] hydrogen phosphate
   44    46     1     0     0
SMALL
USER_CHARGES

@<TRIPOS>ATOM
      1 PG          9.0490    0.9197    4.0403 P.3       1 ATP         1.5257
      2 O1G         8.1880    0.1951    5.0508 O.co2     1 ATP        -0.8737
      3 O2G        10.0392    1.9760    4.4781 O.co2     1 ATP        -0.8737
      4 O3G         9.8391   -0.1906    3.1410 O.3       1 ATP        -0.7971
      5 PB          8.4909    2.2830    1.4764 P.3       1 ATP         1.6824
      6 O1B         9.1623    3.5994    1.7985 O.co2     1 ATP        -0.8925
      7 O2B         9.1478    1.2712    0.5640 O.co2     1 ATP        -0.8925
      8 O3B         8.0905    1.5434    2.8758 O.3       1 ATP        -0.8047
      9 PA          5.7823    3.4683    1.5918 P.3       1 ATP         1.5908
     10 O1A         6.2104    4.9193    1.6338 O.co2     1 ATP        -0.8932
     11 O2A         5.3136    2.7635    2.8462 O.co2     1 ATP        -0.8932
     12 O3A         6.9844    2.5850    0.9251 O.3       1 ATP        -0.8088
     13 O5'         4.6405    3.2699    0.4378 O.3       1 ATP        -0.5646
     14 C5'         4.0922    1.9801    0.2227 C.3       1 ATP         0.2204
     15 C4'         2.5944    2.0310    0.4653 C.3       1 ATP         0.0965
     16 O4'         1.9327    2.5740   -0.6889 O.3       1 ATP        -0.3907
     17 C3'         1.9685    0.6634    0.6767 C.3       1 ATP         0.0763
     18 O3'         2.1425    0.1975    1.9977 O.3       1 ATP        -0.5884
     19 C2'         0.5176    0.9128    0.3099 C.3       1 ATP         0.0784
     20 O2'        -0.2103    1.4454    1.4152 O.3       1 ATP        -0.6085
     21 C1'         0.6219    1.9765   -0.7844 C.3       1 ATP         0.2186
     22 N9          0.4237    1.4496   -2.1357 N.pl3     1 ATP        -0.1699
     23 C8          1.4069    0.9710   -2.9662 C.ar      1 ATP         0.4438
     24 N7          0.9316    0.5623   -4.1260 N.2       1 ATP        -0.6280
     25 C5         -0.4120    0.7884   -4.0344 C.ar      1 ATP         0.2109
     26 C6         -1.4353    0.5283   -5.0204 C.ar      1 ATP         0.6180
     27 N6         -1.1199    0.0176   -6.1586 N.2       1 ATP        -0.8319
     28 N1         -2.6704    0.9095   -4.5147 N.pl3     1 ATP        -0.8664
     29 C2         -2.8863    1.4571   -3.2520 C.ar      1 ATP         0.5952
     30 N3         -1.9805    1.7017   -2.3442 N.2       1 ATP        -0.5599
     31 C4         -0.7561    1.3381   -2.8112 C.ar      1 ATP         0.0076
     32 HOG3       10.4431    0.1243    2.4352 H         1 ATP         0.4101
     33 H5'1        4.3028    1.6728   -0.8066 H         1 ATP         0.0364
     34 H5'2        4.5677    1.2738    0.9106 H         1 ATP         0.0364
     35 H4'         2.3752    2.7029    1.3156 H         1 ATP         0.0945
     36 H3'         2.4336   -0.1217   -0.0015 H         1 ATP         0.0703
     37 HO3'        1.7160   -0.6716    2.0397 H         1 ATP         0.4099
     38 H2'         0.0316    0.0155   -0.0339 H         1 ATP         0.0676
     39 HO2'       -0.1608    0.7921    2.1351 H         1 ATP         0.4291
     40 H1'        -0.1474    2.7798   -0.6651 H         1 ATP         0.0950
     41 H8          2.4466    0.9468   -2.6694 H         1 ATP         0.1135
     42 HN62       -1.9661   -0.0965   -6.7275 H         1 ATP         0.3588
     43 H2         -3.9481    1.6825   -3.0660 H         1 ATP         0.0302
     44 H44        -3.4814    0.7753   -5.1133 H         1 ATP         0.4215
@<TRIPOS>BOND
     1    1    2 2
     2    1    3 1
     3    1    4 1
     4    1    8 1
     5    4   32 1
     6    5    6 2
     7    5    7 1
     8    5    8 1
     9    5   12 1
    10    9   10 2
    11    9   11 1
    12    9   12 1
    13    9   13 1
    14   13   14 1
    15   14   15 1
    16   14   33 1
    17   14   34 1
    18   15   16 1
    19   15   17 1
    20   15   35 1
    21   16   21 1
    22   17   18 1
    23   17   19 1
    24   17   36 1
    25   18   37 1
    26   19   20 1
    27   19   21 1
    28   19   38 1
    29   20   39 1
    30   21   22 1
    31   21   40 1
    32   22   23 ar
    33   22   31 ar
    34   23   24 ar
    35   23   41 1
    36   24   25 ar
    37   25   26 ar
    38   25   31 ar
    39   26   27 2
    40   26   28 ar
    41   27   42 1
    42   28   29 ar
    43   28   44 1
    44   29   30 ar
    45   29   43 1
    46   30   31 ar
@<TRIPOS>SUBSTRUCTURE
     1 ATP         1 GROUP 0 A     ****
@<TRIPOS>MOLECULE
[[[3,4-dihydroxy-5-(6-imino-1~{H}-purin-9-yl)tetrahydrofuran-2-yl]methoxy-oxido-phosphoryl]oxy-oxido-phosphoryl] hydrogen phosphate
   44    46     1     0     0
SMALL
USER_CHARGES

@<TRIPOS>ATOM
      1 PG         -7.6828    3.7147    0.9752 P.3       1 ATP         1.5257
      2 O1G        -8.4591    2.5635    1.5747 O.co2     1 ATP        -0.8737
      3 O2G        -7.9633    4.1921   -0.4323 O.co2     1 ATP        -0.8737
      4 O3G        -7.7864    4.9925    1.9864 O.3       1 ATP        -0.7971
      5 PB         -5.1692    2.2616    0.4146 P.3       1 ATP         1.6824
      6 O1B        -5.5974    0.9095    0.9399 O.co2     1 ATP        -0.8925
      7 O2B        -5.1034    2.5401   -1.0705 O.co2     1 ATP        -0.8925
      8 O3B        -6.0857    3.4124    1.1228 O.3       1 ATP        -0.8047
      9 PA         -3.2890    2.7005    2.6567 P.3       1 ATP         1.5908
     10 O1A        -3.3276    1.2949    3.2163 O.co2     1 ATP        -0.8932
     11 O2A        -4.0474    3.8228    3.3313 O.co2     1 ATP        -0.8932
     12 O3A        -3.7331    2.6526    1.0850 O.3       1 ATP        -0.8088
     13 O5'        -1.7336    3.1724    2.4750 O.3       1 ATP        -0.5646
     14 C5'        -0.8811    2.4285    1.6206 C.3       1 ATP         0.2204
     15 C4'        -0.1994    1.3333    2.4288 C.3       1 ATP         0.0965
     16 O4'        -1.1285    0.2356    2.5840 O.3       1 ATP        -0.3907
     17 C3'         1.0324    0.7610    1.7344 C.3       1 ATP         0.0763
     18 O3'         1.9175    0.2377    2.7247 O.3       1 ATP        -0.5884
     19 C2'         0.4468   -0.3802    0.9263 C.3       1 ATP         0.0784
     20 O2'         1.3993   -1.3703    0.5961 O.3       1 ATP        -0.6085
     21 C1'        -0.6159   -0.9100    1.8769 C.3       1 ATP         0.2186
     22 N9         -1.7127   -1.6108    1.2130 N.pl3     1 ATP        -0.1699
     23 C8         -2.5485   -1.0808    0.2609 C.ar      1 ATP         0.4438
     24 N7         -3.4476   -1.9486   -0.1593 N.2       1 ATP        -0.6280
     25 C5         -3.1762   -3.0816    0.5530 C.ar      1 ATP         0.2109
     26 C6         -3.8510   -4.3579    0.5006 C.ar      1 ATP         0.6180
     27 N6         -4.8468   -4.5293   -0.2961 N.2       1 ATP        -0.8319
     28 N1         -3.2499   -5.2342    1.3937 N.pl3     1 ATP        -0.8664
     29 C2         -2.1646   -4.9275    2.2116 C.ar      1 ATP         0.5952
     30 N3         -1.5382   -3.7840    2.2778 N.2       1 ATP        -0.5599
     31 C4         -2.1054   -2.9018    1.4120 C.ar      1 ATP         0.0076
     32 HOG3       -7.3307    5.8243    1.7359 H         1 ATP         0.4101
     33 H5'1       -1.4800    1.9927    0.8146 H         1 ATP         0.0364
     34 H5'2       -0.1367    3.1040    1.1872 H         1 ATP         0.0364
     35 H4'         0.0403    1.7078    3.4343 H         1 ATP         0.0945
     36 H3'         1.5907    1.4859    1.1353 H         1 ATP         0.0703
     37 HO3'        2.6839   -0.1150    2.2479 H         1 ATP         0.4099
     38 H2'        -0.0017    0.0018    0.0005 H         1 ATP         0.0676
     39 HO2'        2.0953   -0.9375    0.0709 H         1 ATP         0.4291
     40 H1'        -0.1998   -1.6319    2.6178 H         1 ATP         0.0950
     41 H8         -2.4515   -0.0599   -0.0829 H         1 ATP         0.1135
     42 HN62       -5.1990   -5.4882   -0.2005 H         1 ATP         0.3588
     43 H2         -1.8555   -5.7783    2.8388 H         1 ATP         0.0302
     44 H44        -3.6312   -6.1750    1.4526 H         1 ATP         0.4215
@<TRIPOS>BOND
     1    1    2 2
     2    1    3 1
     3    1    4 1
     4    1    8 1
     5    4   32 1
     6    5    6 2
     7    5    7 1
     8    5    8 1
     9    5   12 1
    10    9   10 2
    11    9   11 1
    12    9   12 1
    13    9   13 1
    14   13   14 1
    15   14   15 1
    16   14   33 1
    17   14   34 1
    18   15   16 1
    19   15   17 1
    20   15   35 1
    21   16   21 1
    22   17   18 1
    23   17   19 1
    24   17   36 1
    25   18   37 1
    26   19   20 1
    27   19   21 1
    28   19   38 1
    29   20   39 1
    30   21   22 1
    31   21   40 1
    32   22   23 ar
    33   22   31 ar
    34   23   24 ar
    35   23   41 1
    36   24   25 ar
    37   25   26 ar
    38   25   31 ar
    39   26   27 2
    40   26   28 ar
    41   27   42 1
    42   28   29 ar
    43   28   44 1
    44   29   30 ar
    45   29   43 1
    46   30   31 ar
@<TRIPOS>SUBSTRUCTURE
     1 ATP         1 GROUP 0 A     ****
@<TRIPOS>MOLECULE
[[[3,4-dihydroxy-5-(6-imino-1~{H}-purin-9-yl)tetrahydrofuran-2-yl]methoxy-oxido-phosphoryl]oxy-oxido-phosphoryl] hydrogen phosphate
   44    46     1     0     0
SMALL
USER_CHARGES

@<TRIPOS>ATOM
      1 PG          5.5222    1.9688   -5.9598 P.3       1 ATP         1.5257
      2 O1G         6.4254    0.7654   -5.8066 O.co2     1 ATP        -0.8737
      3 O2G         5.9714    3.1835   -6.7411 O.co2     1 ATP        -0.8737
      4 O3G         4.0883    1.4681   -6.5591 O.3       1 ATP        -0.7971
      5 PB          3.9229    3.5836   -4.0682 P.3       1 ATP         1.6824
      6 O1B         4.4627    4.9418   -4.4573 O.co2     1 ATP        -0.8925
      7 O2B         2.5542    3.1257   -4.5207 O.co2     1 ATP        -0.8925
      8 O3B         5.0187    2.4465   -4.4826 O.3       1 ATP        -0.8047
      9 PA          5.2953    3.6262   -1.4472 P.3       1 ATP         1.5908
     10 O1A         5.7125    5.0807   -1.4737 O.co2     1 ATP        -0.8932
     11 O2A         6.2971    2.5288   -1.7332 O.co2     1 ATP        -0.8932
     12 O3A         4.0174    3.4280   -2.4460 O.3       1 ATP        -0.8088
     13 O5'         4.5670    3.2937   -0.0211 O.3       1 ATP        -0.5646
     14 C5'         4.0922    1.9801    0.2227 C.3       1 ATP         0.2204
     15 C4'         2.5944    2.0310    0.4653 C.3       1 ATP         0.0965
     16 O4'         1.9327    2.5740   -0.6889 O.3       1 ATP        -0.3907
     17 C3'         1.9685    0.6634    0.6767 C.3       1 ATP         0.0763
     18 O3'         2.1425    0.1975    1.9977 O.3       1 ATP        -0.5884
     19 C2'         0.5176    0.9128    0.3099 C.3       1 ATP         0.0784
     20 O2'        -0.2103    1.4454    1.4152 O.3       1 ATP        -0.6085
     21 C1'         0.6219    1.9765   -0.7844 C.3       1 ATP         0.2186
     22 N9          0.4237    1.4496   -2.1357 N.pl3     1 ATP        -0.1699
     23 C8          1.4069    0.9710   -2.9662 C.ar      1 ATP         0.4438
     24 N7          0.9316    0.5623   -4.1260 N.2       1 ATP        -0.6280
     25 C5         -0.4120    0.7884   -4.0344 C.ar      1 ATP         0.2109
     26 C6         -1.4353    0.5283   -5.0204 C.ar      1 ATP         0.6180
     27 N6         -1.1199    0.0176   -6.1586 N.2       1 ATP        -0.8319
     28 N1         -2.6704    0.9095   -4.5147 N.pl3     1 ATP        -0.8664
     29 C2         -2.8863    1.4571   -3.2520 C.ar      1 ATP         0.5952
     30 N3         -1.9805    1.7017   -2.3442 N.2       1 ATP        -0.5599
     31 C4         -0.7561    1.3381   -2.8112 C.ar      1 ATP         0.0076
     32 HOG3        3.3887    2.1375   -6.7166 H         1 ATP         0.4101
     33 H5'1        4.3179    1.3548   -0.6470 H         1 ATP         0.0364
     34 H5'2        4.6083    1.5737    1.0983 H         1 ATP         0.0364
     35 H4'         2.3752    2.7029    1.3156 H         1 ATP         0.0945
     36 H3'         2.4336   -0.1217   -0.0015 H         1 ATP         0.0703
     37 HO3'        3.0987    0.1465    2.1461 H         1 ATP         0.4099
     38 H2'         0.0316    0.0155   -0.0339 H         1 ATP         0.0676
     39 HO2'       -1.1270    1.5823    1.1180 H         1 ATP         0.4291
     40 H1'        -0.1474    2.7798   -0.6651 H         1 ATP         0.0950
     41 H8          2.4466    0.9468   -2.6694 H         1 ATP         0.1135
     42 HN62       -1.9661   -0.0965   -6.7275 H         1 ATP         0.3588
     43 H2         -3.9481    1.6825   -3.0660 H         1 ATP         0.0302
     44 H44        -3.4814    0.7753   -5.1133 H         1 ATP         0.4215
@<TRIPOS>BOND
     1    1    2 2
     2    1    3 1
     3    1    4 1
     4    1    8 1
     5    4   32 1
     6    5    6 2
     7    5    7 1
     8    5    8 1
     9    5   12 1
    10    9   10 2
    11    9   11 1
    12    9   12 1
    13    9   13 1
    14   13   14 1
    15   14   15 1
    16   14   33 1
    17   14   34 1
    18   15   16 1
    19   15   17 1
    20   15   35 1
    21   16   21 1
    22   17   18 1
    23   17   19 1
    24   17   36 1
    25   18   37 1
    26   19   20 1
    27   19   21 1
    28   19   38 1
    29   20   39 1
    30   21   22 1
    31   21   40 1
    32   22   23 ar
    33   22   31 ar
    34   23   24 ar
    35   23   41 1
    36   24   25 ar
    37   25   26 ar
    38   25   31 ar
    39   26   27 2
    40   26   28 ar
    41   27   42 1
    42   28   29 ar
    43   28   44 1
    44   29   30 ar
    45   29   43 1
    46   30   31 ar
@<TRIPOS>SUBSTRUCTURE
     1 ATP         1 GROUP 0 A     ****
@<TRIPOS>MOLECULE
[[[3,4-dihydroxy-5-(6-imino-1~{H}-purin-9-yl)tetrahydrofuran-2-yl]methoxy-oxido-phosphoryl]oxy-oxido-phosphoryl] hydrogen phosphate
   44    46     1     0     0
SMALL
USER_CHARGES

@<TRIPOS>ATOM
      1 PG         -4.8045    7.1416    1.8286 P.3       1 ATP         1.5257
      2 O1G        -4.4473    8.6111    1.8086 O.co2     1 ATP        -0.8737
      3 O2G        -5.2036    6.4561    3.1164 O.co2     1 ATP        -0.8737
      4 O3G        -5.9708    6.8762    0.7171 O.3       1 ATP        -0.7971
      5 PB         -2.0624    6.0541    1.6258 P.3       1 ATP         1.6824
      6 O1B        -1.3260    7.3741    1.5746 O.co2     1 ATP        -0.8925
      7 O2B        -2.0844    5.2177    2.8858 O.co2     1 ATP        -0.8925
      8 O3B        -3.5992    6.2924    1.1288 O.3       1 ATP        -0.8047
      9 PA         -0.0889    4.4444    0.1193 P.3       1 ATP         1.5908
     10 O1A         0.9661    5.5282    0.1728 O.co2     1 ATP        -0.8932
     11 O2A        -0.2001    3.5318   -1.0825 O.co2     1 ATP        -0.8932
     12 O3A        -1.5516    5.1216    0.3871 O.3       1 ATP        -0.8088
     13 O5'         0.0178    3.5131    1.4595 O.3       1 ATP        -0.5646
     14 C5'        -0.8811    2.4285    1.6206 C.3       1 ATP         0.2204
     15 C4'        -0.1994    1.3333    2.4288 C.3       1 ATP         0.0965
     16 O4'        -1.1285    0.2356    2.5840 O.3       1 ATP        -0.3907
     17 C3'         1.0324    0.7610    1.7344 C.3       1 ATP         0.0763
     18 O3'         1.9175    0.2377    2.7247 O.3       1 ATP        -0.5884
     19 C2'         0.4468   -0.3802    0.9263 C.3       1 ATP         0.0784
     20 O2'         1.3993   -1.3703    0.5961 O.3       1 ATP        -0.6085
     21 C1'        -0.6159   -0.9100    1.8769 C.3       1 ATP         0.2186
     22 N9         -1.7127   -1.6108    1.2130 N.pl3     1 ATP        -0.1699
     23 C8         -3.0370   -1.2489    1.2455 C.ar      1 ATP         0.4438
     24 N7         -3.8008   -2.0709    0.5534 N.2       1 ATP        -0.6280
     25 C5         -2.9295   -2.9976    0.0567 C.ar      1 ATP         0.2109
     26 C6         -3.2152   -4.1411   -0.7786 C.ar      1 ATP         0.6180
     27 N6         -4.4238   -4.3865   -1.1456 N.2       1 ATP        -0.8319
     28 N1         -2.0349   -4.8186   -1.0521 N.pl3     1 ATP        -0.8664
     29 C2         -0.7728   -4.4501   -0.5916 C.ar      1 ATP         0.5952
     30 N3         -0.4885   -3.4234    0.1630 N.2       1 ATP        -0.5599
     31 C4         -1.6274   -2.7377    0.4492 C.ar      1 ATP         0.0076
     32 HOG3       -6.3127    5.9633    0.6080 H         1 ATP         0.4101
     33 H5'1       -1.7771    2.7849    2.1387 H         1 ATP         0.0364
     34 H5'2       -1.1654    2.0541    0.6320 H         1 ATP         0.0364
     35 H4'         0.0403    1.7078    3.4343 H         1 ATP         0.0945
     36 H3'         1.5907    1.4859    1.1353 H         1 ATP         0.0703
     37 HO3'        2.1521    0.9800    3.3017 H         1 ATP         0.4099
     38 H2'        -0.0017    0.0018    0.0005 H         1 ATP         0.0676
     39 HO2'        2.0953   -0.9375    0.0709 H         1 ATP         0.4291
     40 H1'        -0.1998   -1.6319    2.6178 H         1 ATP         0.0950
     41 H8         -3.3806   -0.3795    1.7893 H         1 ATP         0.1135
     42 HN62       -4.4384   -5.2300   -1.7295 H         1 ATP         0.3588
     43 H2          0.0180   -5.1355   -0.9348 H         1 ATP         0.0302
     44 H44        -2.0977   -5.6477   -1.6374 H         1 ATP         0.4215
@<TRIPOS>BOND
     1    1    2 2
     2    1    3 1
     3    1    4 1
     4    1    8 1
     5    4   32 1
     6    5    6 2
     7    5    7 1
     8    5    8 1
     9    5   12 1
    10    9   10 2
    11    9   11 1
    12    9   12 1
    13    9   13 1
    14   13   14 1
    15   14   15 1
    16   14   33 1
    17   14   34 1
    18   15   16 1
    19   15   17 1
    20   15   35 1
    21   16   21 1
    22   17   18 1
    23   17   19 1
    24   17   36 1
    25   18   37 1
    26   19   20 1
    27   19   21 1
    28   19   38 1
    29   20   39 1
    30   21   22 1
    31   21   40 1
    32   22   23 ar
    33   22   31 ar
    34   23   24 ar
    35   23   41 1
    36   24   25 ar
    37   25   26 ar
    38   25   31 ar
    39   26   27 2
    40   26   28 ar
    41   27   42 1
    42   28   29 ar
    43   28   44 1
    44   29   30 ar
    45   29   43 1
    46   30   31 ar
@<TRIPOS>SUBSTRUCTURE
     1 ATP         1 GROUP 0 A     ****
@<TRIPOS>MOLECULE
[[[3,4-dihydroxy-5-(6-imino-1~{H}-purin-9-yl)tetrahydrofuran-2-yl]methoxy-oxido-phosphoryl]oxy-oxido-phosphoryl] hydrogen phosphate
   44    46     1     0     0
SMALL
USER_CHARGES

@<TRIPOS>ATOM
      1 PG          6.7646    6.9726    3.1622 P.3       1 ATP         1.5257
      2 O1G         7.5744    7.7386    2.1399 O.co2     1 ATP        -0.8737
      3 O2G         7.2063    6.8991    4.6069 O.co2     1 ATP        -0.8737
      4 O3G         5.2256    7.5161    3.1176 O.3       1 ATP        -0.7971
      5 PB          7.5685    4.2438    2.3554 P.3       1 ATP         1.6824
      6 O1B         8.4874    4.6328    1.2189 O.co2     1 ATP        -0.8925
      7 O2B         8.1201    3.7942    3.6900 O.co2     1 ATP        -0.8925
      8 O3B         6.5076    5.4585    2.6099 O.3       1 ATP        -0.8047
      9 PA          5.2202    2.4549    2.5568 P.3       1 ATP         1.5908
     10 O1A         4.1772    3.5316    2.7649 O.co2     1 ATP        -0.8932
     11 O2A         5.7107    1.6182    3.7182 O.co2     1 ATP        -0.8932
     12 O3A         6.5178    3.1167    1.8164 O.3       1 ATP        -0.8088
     13 O5'         4.7294    1.4427    1.3696 O.3       1 ATP        -0.5646
     14 C5'         4.0922    1.9801    0.2227 C.3       1 ATP         0.2204
     15 C4'         2.5944    2.0310    0.4653 C.3       1 ATP         0.0965
     16 O4'         1.9327    2.5740   -0.6889 O.3       1 ATP        -0.3907
     17 C3'         1.9685    0.6634    0.6767 C.3       1 ATP         0.0763
     18 O3'         2.1425    0.1975    1.9977 O.3       1 ATP        -0.5884
     19 C2'         0.5176    0.9128    0.3099 C.3       1 ATP         0.0784
     20 O2'        -0.2103    1.4454    1.4152 O.3       1 ATP        -0.6085
     21 C1'         0.6219    1.9765   -0.7844 C.3       1 ATP         0.2186
     22 N9          0.4237    1.4496   -2.1357 N.pl3     1 ATP        -0.1699
     23 C8          1.4069    0.9710   -2.9662 C.ar      1 ATP         0.4438
     24 N7          0.9316    0.5623   -4.1260 N.2       1 ATP        -0.6280
     25 C5         -0.4120    0.7884   -4.0344 C.ar      1 ATP         0.2109
     26 C6         -1.4353    0.5283   -5.0204 C.ar      1 ATP         0.6180
     27 N6         -1.1199    0.0176   -6.1586 N.2       1 ATP        -0.8319
     28 N1         -2.6704    0.9095   -4.5147 N.pl3     1 ATP        -0.8664
     29 C2         -2.8863    1.4571   -3.2520 C.ar      1 ATP         0.5952
     30 N3         -1.9805    1.7017   -2.3442 N.2       1 ATP        -0.5599
     31 C4         -0.7561    1.3381   -2.8112 C.ar      1 ATP         0.0076
     32 HOG3        4.5708    7.1145    3.7278 H         1 ATP         0.4101
     33 H5'1        4.4843    2.9854    0.0380 H         1 ATP         0.0364
     34 H5'2        4.3191    1.3446   -0.6392 H         1 ATP         0.0364
     35 H4'         2.3752    2.7029    1.3156 H         1 ATP         0.0945
     36 H3'         2.4336   -0.1217   -0.0015 H         1 ATP         0.0703
     37 HO3'        3.0987    0.1465    2.1461 H         1 ATP         0.4099
     38 H2'         0.0316    0.0155   -0.0339 H         1 ATP         0.0676
     39 HO2'       -0.1608    0.7921    2.1351 H         1 ATP         0.4291
     40 H1'        -0.1474    2.7798   -0.6651 H         1 ATP         0.0950
     41 H8          2.4466    0.9468   -2.6694 H         1 ATP         0.1135
     42 HN62       -1.9661   -0.0965   -6.7275 H         1 ATP         0.3588
     43 H2         -3.9481    1.6825   -3.0660 H         1 ATP         0.0302
     44 H44        -3.4814    0.7753   -5.1133 H         1 ATP         0.4215
@<TRIPOS>BOND
     1    1    2 2
     2    1    3 1
     3    1    4 1
     4    1    8 1
     5    4   32 1
     6    5    6 2
     7    5    7 1
     8    5    8 1
     9    5   12 1
    10    9   10 2
    11    9   11 1
    12    9   12 1
    13    9   13 1
    14   13   14 1
    15   14   15 1
    16   14   33 1
    17   14   34 1
    18   15   16 1
    19   15   17 1
    20   15   35 1
    21   16   21 1
    22   17   18 1
    23   17   19 1
    24   17   36 1
    25   18   37 1
    26   19   20 1
    27   19   21 1
    28   19   38 1
    29   20   39 1
    30   21   22 1
    31   21   40 1
    32   22   23 ar
    33   22   31 ar
    34   23   24 ar
    35   23   41 1
    36   24   25 ar
    37   25   26 ar
    38   25   31 ar
    39   26   27 2
    40   26   28 ar
    41   27   42 1
    42   28   29 ar
    43   28   44 1
    44   29   30 ar
    45   29   43 1
    46   30   31 ar
@<TRIPOS>SUBSTRUCTURE
     1 ATP         1 GROUP 0 A     ****
@<TRIPOS>MOLECULE
[[[3,4-dihydroxy-5-(6-imino-1~{H}-purin-9-yl)tetrahydrofuran-2-yl]methoxy-oxido-phosphoryl]oxy-oxido-phosphoryl] hydrogen phosphate
   44    46     1     0     0
SMALL
USER_CHARGES

@<TRIPOS>ATOM
      1 PG          9.9587    3.9973   -2.1419 P.3       1 ATP         1.5257
      2 O1G        10.9867    3.6964   -1.0742 O.co2     1 ATP        -0.8737
      3 O2G         9.5881    5.4231   -2.4844 O.co2     1 ATP        -0.8737
      4 O3G        10.3981    3.2317   -3.5155 O.3       1 ATP        -0.7971
      5 PB          8.3893    1.5637   -1.5432 P.3       1 ATP         1.6824
      6 O1B         8.6954    0.8087   -2.8175 O.co2     1 ATP        -0.8925
      7 O2B         9.0651    1.2050   -0.2386 O.co2     1 ATP        -0.8925
      8 O3B         8.5958    3.1598   -1.8181 O.3       1 ATP        -0.8047
      9 PA          5.7602    0.3298   -0.9771 P.3       1 ATP         1.5908
     10 O1A         6.0971   -0.2172    0.3932 O.co2     1 ATP        -0.8932
     11 O2A         5.7087   -0.5828   -2.1830 O.co2     1 ATP        -0.8932
     12 O3A         6.7733    1.5672   -1.3123 O.3       1 ATP        -0.8088
     13 O5'         4.3516    1.1575   -0.9026 O.3       1 ATP        -0.5646
     14 C5'         4.0922    1.9801    0.2227 C.3       1 ATP         0.2204
     15 C4'         2.5944    2.0310    0.4653 C.3       1 ATP         0.0965
     16 O4'         1.9327    2.5740   -0.6889 O.3       1 ATP        -0.3907
     17 C3'         1.9685    0.6634    0.6767 C.3       1 ATP         0.0763
     18 O3'         2.1425    0.1975    1.9977 O.3       1 ATP        -0.5884
     19 C2'         0.5176    0.9128    0.3099 C.3       1 ATP         0.0784
     20 O2'        -0.2103    1.4454    1.4152 O.3       1 ATP        -0.6085
     21 C1'         0.6219    1.9765   -0.7844 C.3       1 ATP         0.2186
     22 N9          0.4237    1.4496   -2.1357 N.pl3     1 ATP        -0.1699
     23 C8          1.4069    0.9710   -2.9662 C.ar      1 ATP         0.4438
     24 N7          0.9316    0.5623   -4.1260 N.2       1 ATP        -0.6280
     25 C5         -0.4120    0.7884   -4.0344 C.ar      1 ATP         0.2109
     26 C6         -1.4353    0.5283   -5.0204 C.ar      1 ATP         0.6180
     27 N6         -1.1199    0.0176   -6.1586 N.2       1 ATP        -0.8319
     28 N1         -2.6704    0.9095   -4.5147 N.pl3     1 ATP        -0.8664
     29 C2         -2.8863    1.4571   -3.2520 C.ar      1 ATP         0.5952
     30 N3         -1.9805    1.7017   -2.3442 N.2       1 ATP        -0.5599
     31 C4         -0.7561    1.3381   -2.8112 C.ar      1 ATP         0.0076
     32 HOG3        9.8275    3.3293   -4.3075 H         1 ATP         0.4101
     33 H5'1        4.6069    1.5618    1.0936 H         1 ATP         0.0364
     34 H5'2        4.4824    2.9837    0.0254 H         1 ATP         0.0364
     35 H4'         2.3752    2.7029    1.3156 H         1 ATP         0.0945
     36 H3'         2.4336   -0.1217   -0.0015 H         1 ATP         0.0703
     37 HO3'        1.7160   -0.6716    2.0397 H         1 ATP         0.4099
     38 H2'         0.0316    0.0155   -0.0339 H         1 ATP         0.0676
     39 HO2'       -0.1608    0.7921    2.1351 H         1 ATP         0.4291
     40 H1'        -0.1474    2.7798   -0.6651 H         1 ATP         0.0950
     41 H8          2.4466    0.9468   -2.6694 H         1 ATP         0.1135
     42 HN62       -1.9661   -0.0965   -6.7275 H         1 ATP         0.3588
     43 H2         -3.9481    1.6825   -3.0660 H         1 ATP         0.0302
     44 H44        -3.4814    0.7753   -5.1133 H         1 ATP         0.4215
@<TRIPOS>BOND
     1    1    2 2
     2    1    3 1
     3    1    4 1
     4    1    8 1
     5    4   32 1
     6    5    6 2
     7    5    7 1
     8    5    8 1
     9    5   12 1
    10    9   10 2
    11    9   11 1
    12    9   12 1
    13    9   13 1
    14   13   14 1
    15   14   15 1
    16   14   33 1
    17   14   34 1
    18   15   16 1
    19   15   17 1
    20   15   35 1
    21   16   21 1
    22   17   18 1
    23   17   19 1
    24   17   36 1
    25   18   37 1
    26   19   20 1
    27   19   21 1
    28   19   38 1
    29   20   39 1
    30   21   22 1
    31   21   40 1
    32   22   23 ar
    33   22   31 ar
    34   23   24 ar
    35   23   41 1
    36   24   25 ar
    37   25   26 ar
    38   25   31 ar
    39   26   27 2
    40   26   28 ar
    41   27   42 1
    42   28   29 ar
    43   28   44 1
    44   29   30 ar
    45   29   43 1
    46   30   31 ar
@<TRIPOS>SUBSTRUCTURE
     1 ATP         1 GROUP 0 A     ****
@<TRIPOS>MOLECULE
[[[3,4-dihydroxy-5-(6-imino-1~{H}-purin-9-yl)tetrahydrofuran-2-yl]methoxy-oxido-phosphoryl]oxy-oxido-phosphoryl] hydrogen phosphate
   44    46     1     0     0
SMALL
USER_CHARGES

@<TRIPOS>ATOM
      1 PG          1.1765    5.7904   -0.8037 P.3       1 ATP         1.5257
      2 O1G         0.7699    5.7793   -2.2604 O.co2     1 ATP        -0.8737
      3 O2G         1.3187    4.5006   -0.0265 O.co2     1 ATP        -0.8737
      4 O3G         2.5643    6.6384   -0.6590 O.3       1 ATP        -0.7971
      5 PB         -1.4096    6.6634    0.3334 P.3       1 ATP         1.6824
      6 O1B        -1.8112    7.7776    1.2740 O.co2     1 ATP        -0.8925
      7 O2B        -2.1450    6.4337   -0.9681 O.co2     1 ATP        -0.8925
      8 O3B         0.1865    6.7958    0.0165 O.3       1 ATP        -0.8047
      9 PA         -2.5926    4.4187    1.8556 P.3       1 ATP         1.5908
     10 O1A        -3.5065    3.9076    0.7629 O.co2     1 ATP        -0.8932
     11 O2A        -3.1430    5.2317    3.0070 O.co2     1 ATP        -0.8932
     12 O3A        -1.3728    5.2613    1.1687 O.3       1 ATP        -0.8088
     13 O5'        -1.7336    3.1724    2.4750 O.3       1 ATP        -0.5646
     14 C5'        -0.8811    2.4285    1.6206 C.3       1 ATP         0.2204
     15 C4'        -0.1994    1.3333    2.4288 C.3       1 ATP         0.0965
     16 O4'        -1.1285    0.2356    2.5840 O.3       1 ATP        -0.3907
     17 C3'         1.0324    0.7610    1.7344 C.3       1 ATP         0.0763
     18 O3'         1.9175    0.2377    2.7247 O.3       1 ATP        -0.5884
     19 C2'         0.4468   -0.3802    0.9263 C.3       1 ATP         0.0784
     20 O2'         1.3993   -1.3703    0.5961 O.3       1 ATP        -0.6085
     21 C1'        -0.6159   -0.9100    1.8769 C.3       1 ATP         0.2186
     22 N9         -1.7127   -1.6108    1.2130 N.pl3     1 ATP        -0.1699
     23 C8         -2.0868   -2.9137    1.4327 C.ar      1 ATP         0.4438
     24 N7         -3.1125   -3.2756    0.6878 N.2       1 ATP        -0.6280
     25 C5         -3.4079   -2.1580   -0.0391 C.ar      1 ATP         0.2109
     26 C6         -4.4483   -1.9775   -1.0249 C.ar      1 ATP         0.6180
     27 N6         -5.2418   -2.9492   -1.3113 N.2       1 ATP        -0.8319
     28 N1         -4.3937   -0.6823   -1.5211 N.pl3     1 ATP        -0.8664
     29 C2         -3.4770    0.2901   -1.1271 C.ar      1 ATP         0.5952
     30 N3         -2.5289    0.1525   -0.2402 N.2       1 ATP        -0.5599
     31 C4         -2.5564   -1.1096    0.2655 C.ar      1 ATP         0.0076
     32 HOG3        2.9601    6.7374    0.2331 H         1 ATP         0.4101
     33 H5'1       -1.4800    1.9927    0.8146 H         1 ATP         0.0364
     34 H5'2       -0.1367    3.1040    1.1872 H         1 ATP         0.0364
     35 H4'         0.0403    1.7078    3.4343 H         1 ATP         0.0945
     36 H3'         1.5907    1.4859    1.1353 H         1 ATP         0.0703
     37 HO3'        2.1521    0.9800    3.3017 H         1 ATP         0.4099
     38 H2'        -0.0017    0.0018    0.0005 H         1 ATP         0.0676
     39 HO2'        2.0953   -0.9375    0.0709 H         1 ATP         0.4291
     40 H1'        -0.1998   -1.6319    2.6178 H         1 ATP         0.0950
     41 H8         -1.5740   -3.5449    2.1457 H         1 ATP         0.1135
     42 HN62       -5.9117   -2.6433   -2.0256 H         1 ATP         0.3588
     43 H2         -3.6225    1.2454   -1.6553 H         1 ATP         0.0302
     44 H44        -5.0794   -0.4231   -2.2258 H         1 ATP         0.4215
@<TRIPOS>BOND
     1    1    2 2
     2    1    3 1
     3    1    4 1
     4    1    8 1
     5    4   32 1
     6    5    6 2
     7    5    7 1
     8    5    8 1
     9    5   12 1
    10    9   10 2
    11    9   11 1
    12    9   12 1
    13    9   13 1
    14   13   14 1
    15   14   15 1
    16   14   33 1
    17   14   34 1
    18   15   16 1
    19   15   17 1
    20   15   35 1
    21   16   21 1
    22   17   18 1
    23   17   19 1
    24   17   36 1
    25   18   37 1
    26   19   20 1
    27   19   21 1
    28   19   38 1
    29   20   39 1
    30   21   22 1
    31   21   40 1
    32   22   23 ar
    33   22   31 ar
    34   23   24 ar
    35   23   41 1
    36   24   25 ar
    37   25   26 ar
    38   25   31 ar
    39   26   27 2
    40   26   28 ar
    41   27   42 1
    42   28   29 ar
    43   28   44 1
    44   29   30 ar
    45   29   43 1
    46   30   31 ar
@<TRIPOS>SUBSTRUCTURE
     1 ATP         1 GROUP 0 A     ****
@<TRIPOS>MOLECULE
[[[3,4-dihydroxy-5-(6-imino-1~{H}-purin-9-yl)tetrahydrofuran-2-yl]methoxy-oxido-phosphoryl]oxy-oxido-phosphoryl] hydrogen phosphate
   44    46     1     0     0
SMALL
USER_CHARGES

@<TRIPOS>ATOM
      1 PG          0.6914    2.1626    8.0651 P.3       1 ATP         1.5257
      2 O1G        -0.3401    2.2750    9.1655 O.co2     1 ATP        -0.8737
      3 O2G         1.9909    2.9334    8.1363 O.co2     1 ATP        -0.8737
      4 O3G         1.0373    0.5832    7.8377 O.3       1 ATP        -0.7971
      5 PB         -0.6704    3.8529    6.0572 P.3       1 ATP         1.6824
      6 O1B        -1.8924    4.1965    6.8794 O.co2     1 ATP        -0.8925
      7 O2B         0.4426    4.8561    5.8512 O.co2     1 ATP        -0.8925
      8 O3B        -0.0262    2.4669    6.6312 O.3       1 ATP        -0.8047
      9 PA         -1.9156    4.0918    3.3837 P.3       1 ATP         1.5908
     10 O1A        -0.9829    5.1484    2.8323 O.co2     1 ATP        -0.8932
     11 O2A        -3.3087    4.4562    3.8486 O.co2     1 ATP        -0.8932
     12 O3A        -1.1581    3.3049    4.5989 O.3       1 ATP        -0.8088
     13 O5'        -2.0401    2.8620    2.3128 O.3       1 ATP        -0.5646
     14 C5'        -0.8811    2.4285    1.6206 C.3       1 ATP         0.2204
     15 C4'        -0.1994    1.3333    2.4288 C.3       1 ATP         0.0965
     16 O4'        -1.1285    0.2356    2.5840 O.3       1 ATP        -0.3907
     17 C3'         1.0324    0.7610    1.7344 C.3       1 ATP         0.0763
     18 O3'         1.9175    0.2377    2.7247 O.3       1 ATP        -0.5884
     19 C2'         0.4468   -0.3802    0.9263 C.3       1 ATP         0.0784
     20 O2'         1.3993   -1.3703    0.5961 O.3       1 ATP        -0.6085
     21 C1'        -0.6159   -0.9100    1.8769 C.3       1 ATP         0.2186
     22 N9         -1.7127   -1.6108    1.2130 N.pl3     1 ATP        -0.1699
     23 C8         -2.0868   -2.9137    1.4327 C.ar      1 ATP         0.4438
     24 N7         -3.1125   -3.2756    0.6878 N.2       1 ATP        -0.6280
     25 C5         -3.4079   -2.1580   -0.0391 C.ar      1 ATP         0.2109
     26 C6         -4.4483   -1.9775   -1.0249 C.ar      1 ATP         0.6180
     27 N6         -5.2418   -2.9492   -1.3113 N.2       1 ATP        -0.8319
     28 N1         -4.3937   -0.6823   -1.5211 N.pl3     1 ATP        -0.8664
     29 C2         -3.4770    0.2901   -1.1271 C.ar      1 ATP         0.5952
     30 N3         -2.5289    0.1525   -0.2402 N.2       1 ATP        -0.5599
     31 C4         -2.5564   -1.1096    0.2655 C.ar      1 ATP         0.0076
     32 HOG3        1.6955    0.3435    7.1510 H         1 ATP         0.4101
     33 H5'1       -1.1767    2.0502    0.6368 H         1 ATP         0.0364
     34 H5'2       -0.2080    3.2814    1.4876 H         1 ATP         0.0364
     35 H4'         0.0403    1.7078    3.4343 H         1 ATP         0.0945
     36 H3'         1.5907    1.4859    1.1353 H         1 ATP         0.0703
     37 HO3'        2.6839   -0.1150    2.2479 H         1 ATP         0.4099
     38 H2'        -0.0017    0.0018    0.0005 H         1 ATP         0.0676
     39 HO2'        0.9369   -2.0558    0.0825 H         1 ATP         0.4291
     40 H1'        -0.1998   -1.6319    2.6178 H         1 ATP         0.0950
     41 H8         -1.5740   -3.5449    2.1457 H         1 ATP         0.1135
     42 HN62       -5.9117   -2.6433   -2.0256 H         1 ATP         0.3588
     43 H2         -3.6225    1.2454   -1.6553 H         1 ATP         0.0302
     44 H44        -5.0794   -0.4231   -2.2258 H         1 ATP         0.4215
@<TRIPOS>BOND
     1    1    2 2
     2    1    3 1
     3    1    4 1
     4    1    8 1
     5    4   32 1
     6    5    6 2
     7    5    7 1
     8    5    8 1
     9    5   12 1
    10    9   10 2
    11    9   11 1
    12    9   12 1
    13    9   13 1
    14   13   14 1
    15   14   15 1
    16   14   33 1
    17   14   34 1
    18   15   16 1
    19   15   17 1
    20   15   35 1
    21   16   21 1
    22   17   18 1
    23   17   19 1
    24   17   36 1
    25   18   37 1
    26   19   20 1
    27   19   21 1
    28   19   38 1
    29   20   39 1
    30   21   22 1
    31   21   40 1
    32   22   23 ar
    33   22   31 ar
    34   23   24 ar
    35   23   41 1
    36   24   25 ar
    37   25   26 ar
    38   25   31 ar
    39   26   27 2
    40   26   28 ar
    41   27   42 1
    42   28   29 ar
    43   28   44 1
    44   29   30 ar
    45   29   43 1
    46   30   31 ar
@<TRIPOS>SUBSTRUCTURE
     1 ATP         1 GROUP 0 A     ****
@<TRIPOS>MOLECULE
[[[3,4-dihydroxy-5-(6-imino-1~{H}-purin-9-yl)tetrahydrofuran-2-yl]methoxy-oxido-phosphoryl]oxy-oxido-phosphoryl] hydrogen phosphate
   44    46     1     0     0
SMALL
USER_CHARGES

@<TRIPOS>ATOM
      1 PG          8.0513    0.7187    2.6810 P.3       1 ATP         1.5257
      2 O1G         7.1320    0.3982    1.5236 O.co2     1 ATP        -0.8737
      3 O2G         7.6869    0.3248    4.0952 O.co2     1 ATP        -0.8737
      4 O3G         9.5352    0.1268    2.3441 O.3       1 ATP        -0.7971
      5 PB          7.4426    3.6043    2.8966 P.3       1 ATP         1.6824
      6 O1B         6.7275    3.4311    4.2180 O.co2     1 ATP        -0.8925
      7 O2B         8.2267    4.8604    2.5889 O.co2     1 ATP        -0.8925
      8 O3B         8.4083    2.3110    2.6507 O.3       1 ATP        -0.8047
      9 PA          5.0664    4.2077    1.2399 P.3       1 ATP         1.5908
     10 O1A         5.5244    5.5584    0.7338 O.co2     1 ATP        -0.8932
     11 O2A         4.0307    4.1037    2.3381 O.co2     1 ATP        -0.8932
     12 O3A         6.3780    3.3420    1.6872 O.3       1 ATP        -0.8088
     13 O5'         4.5670    3.2937   -0.0211 O.3       1 ATP        -0.5646
     14 C5'         4.0922    1.9801    0.2227 C.3       1 ATP         0.2204
     15 C4'         2.5944    2.0310    0.4653 C.3       1 ATP         0.0965
     16 O4'         1.9327    2.5740   -0.6889 O.3       1 ATP        -0.3907
     17 C3'         1.9685    0.6634    0.6767 C.3       1 ATP         0.0763
     18 O3'         2.1425    0.1975    1.9977 O.3       1 ATP        -0.5884
     19 C2'         0.5176    0.9128    0.3099 C.3       1 ATP         0.0784
     20 O2'        -0.2103    1.4454    1.4152 O.3       1 ATP        -0.6085
     21 C1'         0.6219    1.9765   -0.7844 C.3       1 ATP         0.2186
     22 N9          0.4237    1.4496   -2.1357 N.pl3     1 ATP        -0.1699
     23 C8          1.4069    0.9710   -2.9662 C.ar      1 ATP         0.4438
     24 N7          0.9316    0.5623   -4.1260 N.2       1 ATP        -0.6280
     25 C5         -0.4120    0.7884   -4.0344 C.ar      1 ATP         0.2109
     26 C6         -1.4353    0.5283   -5.0204 C.ar      1 ATP         0.6180
     27 N6         -1.1199    0.0176   -6.1586 N.2       1 ATP        -0.8319
     28 N1         -2.6704    0.9095   -4.5147 N.pl3     1 ATP        -0.8664
     29 C2         -2.8863    1.4571   -3.2520 C.ar      1 ATP         0.5952
     30 N3         -1.9805    1.7017   -2.3442 N.2       1 ATP        -0.5599
     31 C4         -0.7561    1.3381   -2.8112 C.ar      1 ATP         0.0076
     32 HOG3       10.2499    0.2551    3.0037 H         1 ATP         0.4101
     33 H5'1        4.3179    1.3548   -0.6470 H         1 ATP         0.0364
     34 H5'2        4.6083    1.5737    1.0983 H         1 ATP         0.0364
     35 H4'         2.3752    2.7029    1.3156 H         1 ATP         0.0945
     36 H3'         2.4336   -0.1217   -0.0015 H         1 ATP         0.0703
     37 HO3'        3.0987    0.1465    2.1461 H         1 ATP         0.4099
     38 H2'         0.0316    0.0155   -0.0339 H         1 ATP         0.0676
     39 HO2'       -0.1608    0.7921    2.1351 H         1 ATP         0.4291
     40 H1'        -0.1474    2.7798   -0.6651 H         1 ATP         0.0950
     41 H8          2.4466    0.9468   -2.6694 H         1 ATP         0.1135
     42 HN62       -1.9661   -0.0965   -6.7275 H         1 ATP         0.3588
     43 H2         -3.9481    1.6825   -3.0660 H         1 ATP         0.0302
     44 H44        -3.4814    0.7753   -5.1133 H         1 ATP         0.4215
@<TRIPOS>BOND
     1    1    2 2
     2    1    3 1
     3    1    4 1
     4    1    8 1
     5    4   32 1
     6    5    6 2
     7    5    7 1
     8    5    8 1
     9    5   12 1
    10    9   10 2
    11    9   11 1
    12    9   12 1
    13    9   13 1
    14   13   14 1
    15   14   15 1
    16   14   33 1
    17   14   34 1
    18   15   16 1
    19   15   17 1
    20   15   35 1
    21   16   21 1
    22   17   18 1
    23   17   19 1
    24   17   36 1
    25   18   37 1
    26   19   20 1
    27   19   21 1
    28   19   38 1
    29   20   39 1
    30   21   22 1
    31   21   40 1
    32   22   23 ar
    33   22   31 ar
    34   23   24 ar
    35   23   41 1
    36   24   25 ar
    37   25   26 ar
    38   25   31 ar
    39   26   27 2
    40   26   28 ar
    41   27   42 1
    42   28   29 ar
    43   28   44 1
    44   29   30 ar
    45   29   43 1
    46   30   31 ar
@<TRIPOS>SUBSTRUCTURE
     1 ATP         1 GROUP 0 A     ****
@<TRIPOS>MOLECULE
[[[3,4-dihydroxy-5-(6-imino-1~{H}-purin-9-yl)tetrahydrofuran-2-yl]methoxy-oxido-phosphoryl]oxy-oxido-phosphoryl] hydrogen phosphate
   44    46     1     0     0
SMALL
USER_CHARGES

@<TRIPOS>ATOM
      1 PG         -4.7708    4.6134    2.8494 P.3       1 ATP         1.5257
      2 O1G        -5.1677    4.3192    4.2788 O.co2     1 ATP        -0.8737
      3 O2G        -4.1117    3.5557    1.9923 O.co2     1 ATP        -0.8737
      4 O3G        -6.0782    5.1838    2.0549 O.3       1 ATP        -0.7971
      5 PB         -2.3607    6.2284    3.4211 P.3       1 ATP         1.6824
      6 O1B        -1.8953    7.5980    2.9793 O.co2     1 ATP        -0.8925
      7 O2B        -2.3476    5.8294    4.8799 O.co2     1 ATP        -0.8925
      8 O3B        -3.8554    5.9643    2.8196 O.3       1 ATP        -0.8047
      9 PA          0.0330    4.7083    2.5757 P.3       1 ATP         1.5908
     10 O1A         0.3797    4.1293    3.9302 O.co2     1 ATP        -0.8932
     11 O2A         0.8148    5.8736    2.0095 O.co2     1 ATP        -0.8932
     12 O3A        -1.5535    5.0992    2.5620 O.3       1 ATP        -0.8088
     13 O5'         0.0178    3.5131    1.4595 O.3       1 ATP        -0.5646
     14 C5'        -0.8811    2.4285    1.6206 C.3       1 ATP         0.2204
     15 C4'        -0.1994    1.3333    2.4288 C.3       1 ATP         0.0965
     16 O4'        -1.1285    0.2356    2.5840 O.3       1 ATP        -0.3907
     17 C3'         1.0324    0.7610    1.7344 C.3       1 ATP         0.0763
     18 O3'         1.9175    0.2377    2.7247 O.3       1 ATP        -0.5884
     19 C2'         0.4468   -0.3802    0.9263 C.3       1 ATP         0.0784
     20 O2'         1.3993   -1.3703    0.5961 O.3       1 ATP        -0.6085
     21 C1'        -0.6159   -0.9100    1.8769 C.3       1 ATP         0.2186
     22 N9         -1.7127   -1.6108    1.2130 N.pl3     1 ATP        -0.1699
     23 C8         -1.7690   -2.9583    0.9549 C.ar      1 ATP         0.4438
     24 N7         -2.8827   -3.3076    0.3418 N.2       1 ATP        -0.6280
     25 C5         -3.5683   -2.1351    0.2017 C.ar      1 ATP         0.2109
     26 C6         -4.8617   -1.9185   -0.4044 C.ar      1 ATP         0.6180
     27 N6         -5.5166   -2.9094   -0.8993 N.2       1 ATP        -0.8319
     28 N1         -5.1837   -0.5701   -0.3344 N.pl3     1 ATP        -0.8664
     29 C2         -4.3821    0.4180    0.2330 C.ar      1 ATP         0.5952
     30 N3         -3.2117    0.2488    0.7860 N.2       1 ATP        -0.5599
     31 C4         -2.8672   -1.0657    0.7327 C.ar      1 ATP         0.0076
     32 HOG3       -5.9818    5.4229    1.1084 H         1 ATP         0.4101
     33 H5'1       -1.7771    2.7849    2.1387 H         1 ATP         0.0364
     34 H5'2       -1.1654    2.0541    0.6320 H         1 ATP         0.0364
     35 H4'         0.0403    1.7078    3.4343 H         1 ATP         0.0945
     36 H3'         1.5907    1.4859    1.1353 H         1 ATP         0.0703
     37 HO3'        2.1521    0.9800    3.3017 H         1 ATP         0.4099
     38 H2'        -0.0017    0.0018    0.0005 H         1 ATP         0.0676
     39 HO2'        1.7495   -1.7243    1.4324 H         1 ATP         0.4291
     40 H1'        -0.1998   -1.6319    2.6178 H         1 ATP         0.0950
     41 H8         -0.9697   -3.6300    1.2371 H         1 ATP         0.1135
     42 HN62       -6.4060   -2.5723   -1.2840 H         1 ATP         0.3588
     43 H2         -4.8409    1.4176    0.1757 H         1 ATP         0.0302
     44 H44        -6.0768   -0.2826   -0.7263 H         1 ATP         0.4215
@<TRIPOS>BOND
     1    1    2 2
     2    1    3 1
     3    1    4 1
     4    1    8 1
     5    4   32 1
     6    5    6 2
     7    5    7 1
     8    5    8 1
     9    5   12 1
    10    9   10 2
    11    9   11 1
    12    9   12 1
    13    9   13 1
    14   13   14 1
    15   14   15 1
    16   14   33 1
    17   14   34 1
    18   15   16 1
    19   15   17 1
    20   15   35 1
    21   16   21 1
    22   17   18 1
    23   17   19 1
    24   17   36 1
    25   18   37 1
    26   19   20 1
    27   19   21 1
    28   19   38 1
    29   20   39 1
    30   21   22 1
    31   21   40 1
    32   22   23 ar
    33   22   31 ar
    34   23   24 ar
    35   23   41 1
    36   24   25 ar
    37   25   26 ar
    38   25   31 ar
    39   26   27 2
    40   26   28 ar
    41   27   42 1
    42   28   29 ar
    43   28   44 1
    44   29   30 ar
    45   29   43 1
    46   30   31 ar
@<TRIPOS>SUBSTRUCTURE
     1 ATP         1 GROUP 0 A     ****
@<TRIPOS>MOLECULE
[[[3,4-dihydroxy-5-(6-imino-1~{H}-purin-9-yl)tetrahydrofuran-2-yl]methoxy-oxido-phosphoryl]oxy-oxido-phosphoryl] hydrogen phosphate
   44    46     1     0     0
SMALL
USER_CHARGES

@<TRIPOS>ATOM
      1 PG          0.5722    5.7558    1.9920 P.3       1 ATP         1.5257
      2 O1G         0.8042    4.8952    0.7701 O.co2     1 ATP        -0.8737
      3 O2G         0.5575    7.2647    1.8886 O.co2     1 ATP        -0.8737
      4 O3G        -0.8110    5.2719    2.7121 O.3       1 ATP        -0.7971
      5 PB          3.2501    5.4613    3.2108 P.3       1 ATP         1.6824
      6 O1B         3.6169    6.9023    2.9340 O.co2     1 ATP        -0.8925
      7 O2B         3.7623    4.7450    4.4405 O.co2     1 ATP        -0.8925
      8 O3B         1.6248    5.3158    3.1592 O.3       1 ATP        -0.8047
      9 PA          5.0664    4.2077    1.2399 P.3       1 ATP         1.5908
     10 O1A         5.8387    3.3445    2.2139 O.co2     1 ATP        -0.8932
     11 O2A         5.6685    5.4824    0.6902 O.co2     1 ATP        -0.8932
     12 O3A         3.6130    4.5668    1.8944 O.3       1 ATP        -0.8088
     13 O5'         4.5670    3.2937   -0.0211 O.3       1 ATP        -0.5646
     14 C5'         4.0922    1.9801    0.2227 C.3       1 ATP         0.2204
     15 C4'         2.5944    2.0310    0.4653 C.3       1 ATP         0.0965
     16 O4'         1.9327    2.5740   -0.6889 O.3       1 ATP        -0.3907
     17 C3'         1.9685    0.6634    0.6767 C.3       1 ATP         0.0763
     18 O3'         2.1425    0.1975    1.9977 O.3       1 ATP        -0.5884
     19 C2'         0.5176    0.9128    0.3099 C.3       1 ATP         0.0784
     20 O2'        -0.2103    1.4454    1.4152 O.3       1 ATP        -0.6085
     21 C1'         0.6219    1.9765   -0.7844 C.3       1 ATP         0.2186
     22 N9          0.4237    1.4496   -2.1357 N.pl3     1 ATP        -0.1699
     23 C8          1.4069    0.9710   -2.9662 C.ar      1 ATP         0.4438
     24 N7          0.9316    0.5623   -4.1260 N.2       1 ATP        -0.6280
     25 C5         -0.4120    0.7884   -4.0344 C.ar      1 ATP         0.2109
     26 C6         -1.4353    0.5283   -5.0204 C.ar      1 ATP         0.6180
     27 N6         -1.1199    0.0176   -6.1586 N.2       1 ATP        -0.8319
     28 N1         -2.6704    0.9095   -4.5147 N.pl3     1 ATP        -0.8664
     29 C2         -2.8863    1.4571   -3.2520 C.ar      1 ATP         0.5952
     30 N3         -1.9805    1.7017   -2.3442 N.2       1 ATP        -0.5599
     31 C4         -0.7561    1.3381   -2.8112 C.ar      1 ATP         0.0076
     32 HOG3       -1.1013    5.7369    3.5256 H         1 ATP         0.4101
     33 H5'1        4.3179    1.3548   -0.6470 H         1 ATP         0.0364
     34 H5'2        4.6083    1.5737    1.0983 H         1 ATP         0.0364
     35 H4'         2.3752    2.7029    1.3156 H         1 ATP         0.0945
     36 H3'         2.4336   -0.1217   -0.0015 H         1 ATP         0.0703
     37 HO3'        1.7160   -0.6716    2.0397 H         1 ATP         0.4099
     38 H2'         0.0316    0.0155   -0.0339 H         1 ATP         0.0676
     39 HO2'       -0.1608    0.7921    2.1351 H         1 ATP         0.4291
     40 H1'        -0.1474    2.7798   -0.6651 H         1 ATP         0.0950
     41 H8          2.4466    0.9468   -2.6694 H         1 ATP         0.1135
     42 HN62       -1.9661   -0.0965   -6.7275 H         1 ATP         0.3588
     43 H2         -3.9481    1.6825   -3.0660 H         1 ATP         0.0302
     44 H44        -3.4814    0.7753   -5.1133 H         1 ATP         0.4215
@<TRIPOS>BOND
     1    1    2 2
     2    1    3 1
     3    1    4 1
     4    1    8 1
     5    4   32 1
     6    5    6 2
     7    5    7 1
     8    5    8 1
     9    5   12 1
    10    9   10 2
    11    9   11 1
    12    9   12 1
    13    9   13 1
    14   13   14 1
    15   14   15 1
    16   14   33 1
    17   14   34 1
    18   15   16 1
    19   15   17 1
    20   15   35 1
    21   16   21 1
    22   17   18 1
    23   17   19 1
    24   17   36 1
    25   18   37 1
    26   19   20 1
    27   19   21 1
    28   19   38 1
    29   20   39 1
    30   21   22 1
    31   21   40 1
    32   22   23 ar
    33   22   31 ar
    34   23   24 ar
    35   23   41 1
    36   24   25 ar
    37   25   26 ar
    38   25   31 ar
    39   26   27 2
    40   26   28 ar
    41   27   42 1
    42   28   29 ar
    43   28   44 1
    44   29   30 ar
    45   29   43 1
    46   30   31 ar
@<TRIPOS>SUBSTRUCTURE
     1 ATP         1 GROUP 0 A     ****
@<TRIPOS>MOLECULE
[[[3,4-dihydroxy-5-(6-imino-1~{H}-purin-9-yl)tetrahydrofuran-2-yl]methoxy-oxido-phosphoryl]oxy-oxido-phosphoryl] hydrogen phosphate
   44    46     1     0     0
SMALL
USER_CHARGES

@<TRIPOS>ATOM
      1 PG          2.9202    3.9209    4.4382 P.3       1 ATP         1.5257
      2 O1G         3.9378    4.6285    3.5715 O.co2     1 ATP        -0.8737
      3 O2G         2.1480    2.7300    3.9156 O.co2     1 ATP        -0.8737
      4 O3G         3.6393    3.4973    5.8416 O.3       1 ATP        -0.7971
      5 PB          0.7544    5.9243    4.2400 P.3       1 ATP         1.6824
      6 O1B        -0.0825    6.6587    5.2636 O.co2     1 ATP        -0.8925
      7 O2B         1.4392    6.6635    3.1121 O.co2     1 ATP        -0.8925
      8 O3B         1.8652    5.0200    5.0236 O.3       1 ATP        -0.8047
      9 PA         -1.4709    4.7755    2.6641 P.3       1 ATP         1.5908
     10 O1A        -1.0959    5.3860    1.3310 O.co2     1 ATP        -0.8932
     11 O2A        -2.6068    5.3469    3.4844 O.co2     1 ATP        -0.8932
     12 O3A        -0.1377    4.7127    3.6067 O.3       1 ATP        -0.8088
     13 O5'        -1.7336    3.1724    2.4750 O.3       1 ATP        -0.5646
     14 C5'        -0.8811    2.4285    1.6206 C.3       1 ATP         0.2204
     15 C4'        -0.1994    1.3333    2.4288 C.3       1 ATP         0.0965
     16 O4'        -1.1285    0.2356    2.5840 O.3       1 ATP        -0.3907
     17 C3'         1.0324    0.7610    1.7344 C.3       1 ATP         0.0763
     18 O3'         1.9175    0.2377    2.7247 O.3       1 ATP        -0.5884
     19 C2'         0.4468   -0.3802    0.9263 C.3       1 ATP         0.0784
     20 O2'         1.3993   -1.3703    0.5961 O.3       1 ATP        -0.6085
     21 C1'        -0.6159   -0.9100    1.8769 C.3       1 ATP         0.2186
     22 N9         -1.7127   -1.6108    1.2130 N.pl3     1 ATP        -0.1699
     23 C8         -2.8662   -1.0361    0.7388 C.ar      1 ATP         0.4438
     24 N7         -3.6774   -1.9166    0.1867 N.2       1 ATP        -0.6280
     25 C5         -3.0159   -3.1045    0.3122 C.ar      1 ATP         0.2109
     26 C6         -3.4377   -4.4169   -0.1199 C.ar      1 ATP         0.6180
     27 N6         -4.5720   -4.5691   -0.7080 N.2       1 ATP        -0.8319
     28 N1         -2.4600   -5.3463    0.2071 N.pl3     1 ATP        -0.8664
     29 C2         -1.2595   -5.0554    0.8515 C.ar      1 ATP         0.5952
     30 N3         -0.8555   -3.8803    1.2516 N.2       1 ATP        -0.5599
     31 C4         -1.7946   -2.9457    0.9448 C.ar      1 ATP         0.0076
     32 HOG3        3.1054    3.0255    6.5159 H         1 ATP         0.4101
     33 H5'1       -1.4800    1.9927    0.8146 H         1 ATP         0.0364
     34 H5'2       -0.1367    3.1040    1.1872 H         1 ATP         0.0364
     35 H4'         0.0403    1.7078    3.4343 H         1 ATP         0.0945
     36 H3'         1.5907    1.4859    1.1353 H         1 ATP         0.0703
     37 HO3'        2.1521    0.9800    3.3017 H         1 ATP         0.4099
     38 H2'        -0.0017    0.0018    0.0005 H         1 ATP         0.0676
     39 HO2'        0.9369   -2.0558    0.0825 H         1 ATP         0.4291
     40 H1'        -0.1998   -1.6319    2.6178 H         1 ATP         0.0950
     41 H8         -3.0558    0.0252    0.8256 H         1 ATP         0.1135
     42 HN62       -4.7047   -5.5592   -0.9421 H         1 ATP         0.3588
     43 H2         -0.6372   -5.9505    1.0077 H         1 ATP         0.0302
     44 H44        -2.6338   -6.3155   -0.0469 H         1 ATP         0.4215
@<TRIPOS>BOND
     1    1    2 2
     2    1    3 1
     3    1    4 1
     4    1    8 1
     5    4   32 1
     6    5    6 2
     7    5    7 1
     8    5    8 1
     9    5   12 1
    10    9   10 2
    11    9   11 1
    12    9   12 1
    13    9   13 1
    14   13   14 1
    15   14   15 1
    16   14   33 1
    17   14   34 1
    18   15   16 1
    19   15   17 1
    20   15   35 1
    21   16   21 1
    22   17   18 1
    23   17   19 1
    24   17   36 1
    25   18   37 1
    26   19   20 1
    27   19   21 1
    28   19   38 1
    29   20   39 1
    30   21   22 1
    31   21   40 1
    32   22   23 ar
    33   22   31 ar
    34   23   24 ar
    35   23   41 1
    36   24   25 ar
    37   25   26 ar
    38   25   31 ar
    39   26   27 2
    40   26   28 ar
    41   27   42 1
    42   28   29 ar
    43   28   44 1
    44   29   30 ar
    45   29   43 1
    46   30   31 ar
@<TRIPOS>SUBSTRUCTURE
     1 ATP         1 GROUP 0 A     ****
@<TRIPOS>MOLECULE
[[[3,4-dihydroxy-5-(6-imino-1~{H}-purin-9-yl)tetrahydrofuran-2-yl]methoxy-oxido-phosphoryl]oxy-oxido-phosphoryl] hydrogen phosphate
   44    46     1     0     0
SMALL
USER_CHARGES

@<TRIPOS>ATOM
      1 PG         -2.6530    6.0543   -3.2765 P.3       1 ATP         1.5257
      2 O1G        -2.2011    5.0176   -4.2808 O.co2     1 ATP        -0.8737
      3 O2G        -2.2855    7.5118   -3.4452 O.co2     1 ATP        -0.8737
      4 O3G        -4.2736    5.9441   -3.1109 O.3       1 ATP        -0.7971
      5 PB         -2.5789    6.2159   -0.3249 P.3       1 ATP         1.6824
      6 O1B        -1.9060    7.5659   -0.2145 O.co2     1 ATP        -0.8925
      7 O2B        -4.0626    6.0576   -0.0779 O.co2     1 ATP        -0.8925
      8 O3B        -2.2186    5.5690   -1.7800 O.3       1 ATP        -0.8047
      9 PA         -0.1844    4.7788    0.6530 P.3       1 ATP         1.5908
     10 O1A         0.5894    5.9926    1.1199 O.co2     1 ATP        -0.8932
     11 O2A         0.1717    4.0864   -0.6446 O.co2     1 ATP        -0.8932
     12 O3A        -1.7748    5.1518    0.6164 O.3       1 ATP        -0.8088
     13 O5'        -0.2062    3.6557    1.8417 O.3       1 ATP        -0.5646
     14 C5'        -0.8811    2.4285    1.6206 C.3       1 ATP         0.2204
     15 C4'        -0.1994    1.3333    2.4288 C.3       1 ATP         0.0965
     16 O4'        -1.1285    0.2356    2.5840 O.3       1 ATP        -0.3907
     17 C3'         1.0324    0.7610    1.7344 C.3       1 ATP         0.0763
     18 O3'         1.9175    0.2377    2.7247 O.3       1 ATP        -0.5884
     19 C2'         0.4468   -0.3802    0.9263 C.3       1 ATP         0.0784
     20 O2'         1.3993   -1.3703    0.5961 O.3       1 ATP        -0.6085
     21 C1'        -0.6159   -0.9100    1.8769 C.3       1 ATP         0.2186
     22 N9         -1.7127   -1.6108    1.2130 N.pl3     1 ATP        -0.1699
     23 C8         -2.5485   -1.0808    0.2609 C.ar      1 ATP         0.4438
     24 N7         -3.4476   -1.9486   -0.1593 N.2       1 ATP        -0.6280
     25 C5         -3.1762   -3.0816    0.5530 C.ar      1 ATP         0.2109
     26 C6         -3.8510   -4.3579    0.5006 C.ar      1 ATP         0.6180
     27 N6         -4.8468   -4.5293   -0.2961 N.2       1 ATP        -0.8319
     28 N1         -3.2499   -5.2342    1.3937 N.pl3     1 ATP        -0.8664
     29 C2         -2.1646   -4.9275    2.2116 C.ar      1 ATP         0.5952
     30 N3         -1.5382   -3.7840    2.2778 N.2       1 ATP        -0.5599
     31 C4         -2.1054   -2.9018    1.4120 C.ar      1 ATP         0.0076
     32 HOG3       -4.6544    5.0956   -2.7989 H         1 ATP         0.4101
     33 H5'1       -1.9256    2.5380    1.9293 H         1 ATP         0.0364
     34 H5'2       -0.8474    2.1930    0.5521 H         1 ATP         0.0364
     35 H4'         0.0403    1.7078    3.4343 H         1 ATP         0.0945
     36 H3'         1.5907    1.4859    1.1353 H         1 ATP         0.0703
     37 HO3'        2.1521    0.9800    3.3017 H         1 ATP         0.4099
     38 H2'        -0.0017    0.0018    0.0005 H         1 ATP         0.0676
     39 HO2'        0.9369   -2.0558    0.0825 H         1 ATP         0.4291
     40 H1'        -0.1998   -1.6319    2.6178 H         1 ATP         0.0950
     41 H8         -2.4515   -0.0599   -0.0829 H         1 ATP         0.1135
     42 HN62       -5.1990   -5.4882   -0.2005 H         1 ATP         0.3588
     43 H2         -1.8555   -5.7783    2.8388 H         1 ATP         0.0302
     44 H44        -3.6312   -6.1750    1.4526 H         1 ATP         0.4215
@<TRIPOS>BOND
     1    1    2 2
     2    1    3 1
     3    1    4 1
     4    1    8 1
     5    4   32 1
     6    5    6 2
     7    5    7 1
     8    5    8 1
     9    5   12 1
    10    9   10 2
    11    9   11 1
    12    9   12 1
    13    9   13 1
    14   13   14 1
    15   14   15 1
    16   14   33 1
    17   14   34 1
    18   15   16 1
    19   15   17 1
    20   15   35 1
    21   16   21 1
    22   17   18 1
    23   17   19 1
    24   17   36 1
    25   18   37 1
    26   19   20 1
    27   19   21 1
    28   19   38 1
    29   20   39 1
    30   21   22 1
    31   21   40 1
    32   22   23 ar
    33   22   31 ar
    34   23   24 ar
    35   23   41 1
    36   24   25 ar
    37   25   26 ar
    38   25   31 ar
    39   26   27 2
    40   26   28 ar
    41   27   42 1
    42   28   29 ar
    43   28   44 1
    44   29   30 ar
    45   29   43 1
    46   30   31 ar
@<TRIPOS>SUBSTRUCTURE
     1 ATP         1 GROUP 0 A     ****
@<TRIPOS>MOLECULE
[[[3,4-dihydroxy-5-(6-imino-1~{H}-purin-9-yl)tetrahydrofuran-2-yl]methoxy-oxido-phosphoryl]oxy-oxido-phosphoryl] hydrogen phosphate
   44    46     1     0     0
SMALL
USER_CHARGES

@<TRIPOS>ATOM
      1 PG         -3.7033    6.1801   -2.8951 P.3       1 ATP         1.5257
      2 O1G        -3.3901    7.6451   -3.1028 O.co2     1 ATP        -0.8737
      3 O2G        -5.1146    5.7206   -2.6039 O.co2     1 ATP        -0.8737
      4 O3G        -3.1397    5.3422   -4.1783 O.3       1 ATP        -0.7971
      5 PB         -1.0761    5.6290   -1.6551 P.3       1 ATP         1.6824
      6 O1B        -0.4990    4.7884   -2.7722 O.co2     1 ATP        -0.8925
      7 O2B        -0.6450    7.0645   -1.4520 O.co2     1 ATP        -0.8925
      8 O3B        -2.7052    5.5804   -1.7515 O.3       1 ATP        -0.8047
      9 PA          0.4655    4.4361    0.5710 P.3       1 ATP         1.5908
     10 O1A         1.1233    5.7111    1.0526 O.co2     1 ATP        -0.8932
     11 O2A         1.2411    3.4267   -0.2470 O.co2     1 ATP        -0.8932
     12 O3A        -0.8949    4.8235   -0.2469 O.3       1 ATP        -0.8088
     13 O5'        -0.2062    3.6557    1.8417 O.3       1 ATP        -0.5646
     14 C5'        -0.8811    2.4285    1.6206 C.3       1 ATP         0.2204
     15 C4'        -0.1994    1.3333    2.4288 C.3       1 ATP         0.0965
     16 O4'        -1.1285    0.2356    2.5840 O.3       1 ATP        -0.3907
     17 C3'         1.0324    0.7610    1.7344 C.3       1 ATP         0.0763
     18 O3'         1.9175    0.2377    2.7247 O.3       1 ATP        -0.5884
     19 C2'         0.4468   -0.3802    0.9263 C.3       1 ATP         0.0784
     20 O2'         1.3993   -1.3703    0.5961 O.3       1 ATP        -0.6085
     21 C1'        -0.6159   -0.9100    1.8769 C.3       1 ATP         0.2186
     22 N9         -1.7127   -1.6108    1.2130 N.pl3     1 ATP        -0.1699
     23 C8         -2.5485   -1.0808    0.2609 C.ar      1 ATP         0.4438
     24 N7         -3.4476   -1.9486   -0.1593 N.2       1 ATP        -0.6280
     25 C5         -3.1762   -3.0816    0.5530 C.ar      1 ATP         0.2109
     26 C6         -3.8510   -4.3579    0.5006 C.ar      1 ATP         0.6180
     27 N6         -4.8468   -4.5293   -0.2961 N.2       1 ATP        -0.8319
     28 N1         -3.2499   -5.2342    1.3937 N.pl3     1 ATP        -0.8664
     29 C2         -2.1646   -4.9275    2.2116 C.ar      1 ATP         0.5952
     30 N3         -1.5382   -3.7840    2.2778 N.2       1 ATP        -0.5599
     31 C4         -2.1054   -2.9018    1.4120 C.ar      1 ATP         0.0076
     32 HOG3       -3.2668    4.3697   -4.1931 H         1 ATP         0.4101
     33 H5'1       -1.9256    2.5380    1.9293 H         1 ATP         0.0364
     34 H5'2       -0.8474    2.1930    0.5521 H         1 ATP         0.0364
     35 H4'         0.0403    1.7078    3.4343 H         1 ATP         0.0945
     36 H3'         1.5907    1.4859    1.1353 H         1 ATP         0.0703
     37 HO3'        2.6839   -0.1150    2.2479 H         1 ATP         0.4099
     38 H2'        -0.0017    0.0018    0.0005 H         1 ATP         0.0676
     39 HO2'        2.0953   -0.9375    0.0709 H         1 ATP         0.4291
     40 H1'        -0.1998   -1.6319    2.6178 H         1 ATP         0.0950
     41 H8         -2.4515   -0.0599   -0.0829 H         1 ATP         0.1135
     42 HN62       -5.1990   -5.4882   -0.2005 H         1 ATP         0.3588
     43 H2         -1.8555   -5.7783    2.8388 H         1 ATP         0.0302
     44 H44        -3.6312   -6.1750    1.4526 H         1 ATP         0.4215
@<TRIPOS>BOND
     1    1    2 2
     2    1    3 1
     3    1    4 1
     4    1    8 1
     5    4   32 1
     6    5    6 2
     7    5    7 1
     8    5    8 1
     9    5   12 1
    10    9   10 2
    11    9   11 1
    12    9   12 1
    13    9   13 1
    14   13   14 1
    15   14   15 1
    16   14   33 1
    17   14   34 1
    18   15   16 1
    19   15   17 1
    20   15   35 1
    21   16   21 1
    22   17   18 1
    23   17   19 1
    24   17   36 1
    25   18   37 1
    26   19   20 1
    27   19   21 1
    28   19   38 1
    29   20   39 1
    30   21   22 1
    31   21   40 1
    32   22   23 ar
    33   22   31 ar
    34   23   24 ar
    35   23   41 1
    36   24   25 ar
    37   25   26 ar
    38   25   31 ar
    39   26   27 2
    40   26   28 ar
    41   27   42 1
    42   28   29 ar
    43   28   44 1
    44   29   30 ar
    45   29   43 1
    46   30   31 ar
@<TRIPOS>SUBSTRUCTURE
     1 ATP         1 GROUP 0 A     ****
@<TRIPOS>MOLECULE
[[[3,4-dihydroxy-5-(6-imino-1~{H}-purin-9-yl)tetrahydrofuran-2-yl]methoxy-oxido-phosphoryl]oxy-oxido-phosphoryl] hydrogen phosphate
   44    46     1     0     0
SMALL
USER_CHARGES

@<TRIPOS>ATOM
      1 PG          1.2720    6.0546    6.4084 P.3       1 ATP         1.5257
      2 O1G         2.3400    5.2745    7.1420 O.co2     1 ATP        -0.8737
      3 O2G         0.3650    7.0140    7.1465 O.co2     1 ATP        -0.8737
      4 O3G         1.9725    6.8534    5.1686 O.3       1 ATP        -0.7971
      5 PB         -0.6704    3.8529    6.0572 P.3       1 ATP         1.6824
      6 O1B         0.1311    2.7671    6.7399 O.co2     1 ATP        -0.8925
      7 O2B        -1.8455    4.5100    6.7464 O.co2     1 ATP        -0.8925
      8 O3B         0.3542    5.0167    5.5458 O.3       1 ATP        -0.8047
      9 PA         -1.9156    4.0918    3.3837 P.3       1 ATP         1.5908
     10 O1A        -0.9829    5.1484    2.8323 O.co2     1 ATP        -0.8932
     11 O2A        -3.3087    4.4562    3.8486 O.co2     1 ATP        -0.8932
     12 O3A        -1.1581    3.3049    4.5989 O.3       1 ATP        -0.8088
     13 O5'        -2.0401    2.8620    2.3128 O.3       1 ATP        -0.5646
     14 C5'        -0.8811    2.4285    1.6206 C.3       1 ATP         0.2204
     15 C4'        -0.1994    1.3333    2.4288 C.3       1 ATP         0.0965
     16 O4'        -1.1285    0.2356    2.5840 O.3       1 ATP        -0.3907
     17 C3'         1.0324    0.7610    1.7344 C.3       1 ATP         0.0763
     18 O3'         1.9175    0.2377    2.7247 O.3       1 ATP        -0.5884
     19 C2'         0.4468   -0.3802    0.9263 C.3       1 ATP         0.0784
     20 O2'         1.3993   -1.3703    0.5961 O.3       1 ATP        -0.6085
     21 C1'        -0.6159   -0.9100    1.8769 C.3       1 ATP         0.2186
     22 N9         -1.7127   -1.6108    1.2130 N.pl3     1 ATP        -0.1699
     23 C8         -2.5485   -1.0808    0.2609 C.ar      1 ATP         0.4438
     24 N7         -3.4476   -1.9486   -0.1593 N.2       1 ATP        -0.6280
     25 C5         -3.1762   -3.0816    0.5530 C.ar      1 ATP         0.2109
     26 C6         -3.8510   -4.3579    0.5006 C.ar      1 ATP         0.6180
     27 N6         -4.8468   -4.5293   -0.2961 N.2       1 ATP        -0.8319
     28 N1         -3.2499   -5.2342    1.3937 N.pl3     1 ATP        -0.8664
     29 C2         -2.1646   -4.9275    2.2116 C.ar      1 ATP         0.5952
     30 N3         -1.5382   -3.7840    2.2778 N.2       1 ATP        -0.5599
     31 C4         -2.1054   -2.9018    1.4120 C.ar      1 ATP         0.0076
     32 HOG3        2.4345    6.3314    4.4784 H         1 ATP         0.4101
     33 H5'1       -1.1767    2.0502    0.6368 H         1 ATP         0.0364
     34 H5'2       -0.2080    3.2814    1.4876 H         1 ATP         0.0364
     35 H4'         0.0403    1.7078    3.4343 H         1 ATP         0.0945
     36 H3'         1.5907    1.4859    1.1353 H         1 ATP         0.0703
     37 HO3'        2.6839   -0.1150    2.2479 H         1 ATP         0.4099
     38 H2'        -0.0017    0.0018    0.0005 H         1 ATP         0.0676
     39 HO2'        2.0953   -0.9375    0.0709 H         1 ATP         0.4291
     40 H1'        -0.1998   -1.6319    2.6178 H         1 ATP         0.0950
     41 H8         -2.4515   -0.0599   -0.0829 H         1 ATP         0.1135
     42 HN62       -5.1990   -5.4882   -0.2005 H         1 ATP         0.3588
     43 H2         -1.8555   -5.7783    2.8388 H         1 ATP         0.0302
     44 H44        -3.6312   -6.1750    1.4526 H         1 ATP         0.4215
@<TRIPOS>BOND
     1    1    2 2
     2    1    3 1
     3    1    4 1
     4    1    8 1
     5    4   32 1
     6    5    6 2
     7    5    7 1
     8    5    8 1
     9    5   12 1
    10    9   10 2
    11    9   11 1
    12    9   12 1
    13    9   13 1
    14   13   14 1
    15   14   15 1
    16   14   33 1
    17   14   34 1
    18   15   16 1
    19   15   17 1
    20   15   35 1
    21   16   21 1
    22   17   18 1
    23   17   19 1
    24   17   36 1
    25   18   37 1
    26   19   20 1
    27   19   21 1
    28   19   38 1
    29   20   39 1
    30   21   22 1
    31   21   40 1
    32   22   23 ar
    33   22   31 ar
    34   23   24 ar
    35   23   41 1
    36   24   25 ar
    37   25   26 ar
    38   25   31 ar
    39   26   27 2
    40   26   28 ar
    41   27   42 1
    42   28   29 ar
    43   28   44 1
    44   29   30 ar
    45   29   43 1
    46   30   31 ar
@<TRIPOS>SUBSTRUCTURE
     1 ATP         1 GROUP 0 A     ****
@<TRIPOS>MOLECULE
[[[3,4-dihydroxy-5-(6-imino-1~{H}-purin-9-yl)tetrahydrofuran-2-yl]methoxy-oxido-phosphoryl]oxy-oxido-phosphoryl] hydrogen phosphate
   44    46     1     0     0
SMALL
USER_CHARGES

@<TRIPOS>ATOM
      1 PG          9.8449    5.2503    0.7591 P.3       1 ATP         1.5257
      2 O1G         9.5008    6.6980    1.0296 O.co2     1 ATP        -0.8737
      3 O2G        10.4682    4.8318   -0.5539 O.co2     1 ATP        -0.8737
      4 O3G        10.7859    4.7047    1.9769 O.3       1 ATP        -0.7971
      5 PB          7.5685    4.2438    2.3554 P.3       1 ATP         1.6824
      6 O1B         8.3679    3.6552    3.4964 O.co2     1 ATP        -0.8925
      7 O2B         6.8346    5.5574    2.5089 O.co2     1 ATP        -0.8925
      8 O3B         8.5256    4.3301    1.0356 O.3       1 ATP        -0.8047
      9 PA          5.2202    2.4549    2.5568 P.3       1 ATP         1.5908
     10 O1A         4.1772    3.5316    2.7649 O.co2     1 ATP        -0.8932
     11 O2A         5.7107    1.6182    3.7182 O.co2     1 ATP        -0.8932
     12 O3A         6.5178    3.1167    1.8164 O.3       1 ATP        -0.8088
     13 O5'         4.7294    1.4427    1.3696 O.3       1 ATP        -0.5646
     14 C5'         4.0922    1.9801    0.2227 C.3       1 ATP         0.2204
     15 C4'         2.5944    2.0310    0.4653 C.3       1 ATP         0.0965
     16 O4'         1.9327    2.5740   -0.6889 O.3       1 ATP        -0.3907
     17 C3'         1.9685    0.6634    0.6767 C.3       1 ATP         0.0763
     18 O3'         2.1425    0.1975    1.9977 O.3       1 ATP        -0.5884
     19 C2'         0.5176    0.9128    0.3099 C.3       1 ATP         0.0784
     20 O2'        -0.2103    1.4454    1.4152 O.3       1 ATP        -0.6085
     21 C1'         0.6219    1.9765   -0.7844 C.3       1 ATP         0.2186
     22 N9          0.4237    1.4496   -2.1357 N.pl3     1 ATP        -0.1699
     23 C8          1.4069    0.9710   -2.9662 C.ar      1 ATP         0.4438
     24 N7          0.9316    0.5623   -4.1260 N.2       1 ATP        -0.6280
     25 C5         -0.4120    0.7884   -4.0344 C.ar      1 ATP         0.2109
     26 C6         -1.4353    0.5283   -5.0204 C.ar      1 ATP         0.6180
     27 N6         -1.1199    0.0176   -6.1586 N.2       1 ATP        -0.8319
     28 N1         -2.6704    0.9095   -4.5147 N.pl3     1 ATP        -0.8664
     29 C2         -2.8863    1.4571   -3.2520 C.ar      1 ATP         0.5952
     30 N3         -1.9805    1.7017   -2.3442 N.2       1 ATP        -0.5599
     31 C4         -0.7561    1.3381   -2.8112 C.ar      1 ATP         0.0076
     32 HOG3       11.0954    3.7743    1.9468 H         1 ATP         0.4101
     33 H5'1        4.4843    2.9854    0.0380 H         1 ATP         0.0364
     34 H5'2        4.3191    1.3446   -0.6392 H         1 ATP         0.0364
     35 H4'         2.3752    2.7029    1.3156 H         1 ATP         0.0945
     36 H3'         2.4336   -0.1217   -0.0015 H         1 ATP         0.0703
     37 HO3'        3.0987    0.1465    2.1461 H         1 ATP         0.4099
     38 H2'         0.0316    0.0155   -0.0339 H         1 ATP         0.0676
     39 HO2'       -0.1608    0.7921    2.1351 H         1 ATP         0.4291
     40 H1'        -0.1474    2.7798   -0.6651 H         1 ATP         0.0950
     41 H8          2.4466    0.9468   -2.6694 H         1 ATP         0.1135
     42 HN62       -1.9661   -0.0965   -6.7275 H         1 ATP         0.3588
     43 H2         -3.9481    1.6825   -3.0660 H         1 ATP         0.0302
     44 H44        -3.4814    0.7753   -5.1133 H         1 ATP         0.4215
@<TRIPOS>BOND
     1    1    2 2
     2    1    3 1
     3    1    4 1
     4    1    8 1
     5    4   32 1
     6    5    6 2
     7    5    7 1
     8    5    8 1
     9    5   12 1
    10    9   10 2
    11    9   11 1
    12    9   12 1
    13    9   13 1
    14   13   14 1
    15   14   15 1
    16   14   33 1
    17   14   34 1
    18   15   16 1
    19   15   17 1
    20   15   35 1
    21   16   21 1
    22   17   18 1
    23   17   19 1
    24   17   36 1
    25   18   37 1
    26   19   20 1
    27   19   21 1
    28   19   38 1
    29   20   39 1
    30   21   22 1
    31   21   40 1
    32   22   23 ar
    33   22   31 ar
    34   23   24 ar
    35   23   41 1
    36   24   25 ar
    37   25   26 ar
    38   25   31 ar
    39   26   27 2
    40   26   28 ar
    41   27   42 1
    42   28   29 ar
    43   28   44 1
    44   29   30 ar
    45   29   43 1
    46   30   31 ar
@<TRIPOS>SUBSTRUCTURE
     1 ATP         1 GROUP 0 A     ****
@<TRIPOS>MOLECULE
[[[3,4-dihydroxy-5-(6-imino-1~{H}-purin-9-yl)tetrahydrofuran-2-yl]methoxy-oxido-phosphoryl]oxy-oxido-phosphoryl] hydrogen phosphate
   44    46     1     0     0
SMALL
USER_CHARGES

@<TRIPOS>ATOM
      1 PG         -1.5019    9.2796    3.2398 P.3       1 ATP         1.5257
      2 O1G        -0.2039    9.7185    3.8802 O.co2     1 ATP        -0.8737
      3 O2G        -2.8254    9.4934    3.9401 O.co2     1 ATP        -0.8737
      4 O3G        -1.5925    9.9370    1.7480 O.3       1 ATP        -0.7971
      5 PB         -0.2454    6.9591    1.9056 P.3       1 ATP         1.6824
      6 O1B        -0.3462    7.4659    0.4842 O.co2     1 ATP        -0.8925
      7 O2B         1.0683    6.9839    2.6548 O.co2     1 ATP        -0.8925
      8 O3B        -1.3782    7.7098    2.8105 O.3       1 ATP        -0.8047
      9 PA         -1.1369    4.4808    3.2540 P.3       1 ATP         1.5908
     10 O1A        -2.2259    5.1046    4.0997 O.co2     1 ATP        -0.8932
     11 O2A         0.1944    4.1006    3.8646 O.co2     1 ATP        -0.8932
     12 O3A        -0.8543    5.4457    1.9661 O.3       1 ATP        -0.8088
     13 O5'        -1.7336    3.1724    2.4750 O.3       1 ATP        -0.5646
     14 C5'        -0.8811    2.4285    1.6206 C.3       1 ATP         0.2204
     15 C4'        -0.1994    1.3333    2.4288 C.3       1 ATP         0.0965
     16 O4'        -1.1285    0.2356    2.5840 O.3       1 ATP        -0.3907
     17 C3'         1.0324    0.7610    1.7344 C.3       1 ATP         0.0763
     18 O3'         1.9175    0.2377    2.7247 O.3       1 ATP        -0.5884
     19 C2'         0.4468   -0.3802    0.9263 C.3       1 ATP         0.0784
     20 O2'         1.3993   -1.3703    0.5961 O.3       1 ATP        -0.6085
     21 C1'        -0.6159   -0.9100    1.8769 C.3       1 ATP         0.2186
     22 N9         -1.7127   -1.6108    1.2130 N.pl3     1 ATP        -0.1699
     23 C8         -1.7690   -2.9583    0.9549 C.ar      1 ATP         0.4438
     24 N7         -2.8827   -3.3076    0.3418 N.2       1 ATP        -0.6280
     25 C5         -3.5683   -2.1351    0.2017 C.ar      1 ATP         0.2109
     26 C6         -4.8617   -1.9185   -0.4044 C.ar      1 ATP         0.6180
     27 N6         -5.5166   -2.9094   -0.8993 N.2       1 ATP        -0.8319
     28 N1         -5.1837   -0.5701   -0.3344 N.pl3     1 ATP        -0.8664
     29 C2         -4.3821    0.4180    0.2330 C.ar      1 ATP         0.5952
     30 N3         -3.2117    0.2488    0.7860 N.2       1 ATP        -0.5599
     31 C4         -2.8672   -1.0657    0.7327 C.ar      1 ATP         0.0076
     32 HOG3       -2.3832    9.7446    1.2002 H         1 ATP         0.4101
     33 H5'1       -1.4800    1.9927    0.8146 H         1 ATP         0.0364
     34 H5'2       -0.1367    3.1040    1.1872 H         1 ATP         0.0364
     35 H4'         0.0403    1.7078    3.4343 H         1 ATP         0.0945
     36 H3'         1.5907    1.4859    1.1353 H         1 ATP         0.0703
     37 HO3'        2.6839   -0.1150    2.2479 H         1 ATP         0.4099
     38 H2'        -0.0017    0.0018    0.0005 H         1 ATP         0.0676
     39 HO2'        2.0953   -0.9375    0.0709 H         1 ATP         0.4291
     40 H1'        -0.1998   -1.6319    2.6178 H         1 ATP         0.0950
     41 H8         -0.9697   -3.6300    1.2371 H         1 ATP         0.1135
     42 HN62       -6.4060   -2.5723   -1.2840 H         1 ATP         0.3588
     43 H2         -4.8409    1.4176    0.1757 H         1 ATP         0.0302
     44 H44        -6.0768   -0.2826   -0.7263 H         1 ATP         0.4215
@<TRIPOS>BOND
     1    1    2 2
     2    1    3 1
     3    1    4 1
     4    1    8 1
     5    4   32 1
     6    5    6 2
     7    5    7 1
     8    5    8 1
     9    5   12 1
    10    9   10 2
    11    9   11 1
    12    9   12 1
    13    9   13 1
    14   13   14 1
    15   14   15 1
    16   14   33 1
    17   14   34 1
    18   15   16 1
    19   15   17 1
    20   15   35 1
    21   16   21 1
    22   17   18 1
    23   17   19 1
    24   17   36 1
    25   18   37 1
    26   19   20 1
    27   19   21 1
    28   19   38 1
    29   20   39 1
    30   21   22 1
    31   21   40 1
    32   22   23 ar
    33   22   31 ar
    34   23   24 ar
    35   23   41 1
    36   24   25 ar
    37   25   26 ar
    38   25   31 ar
    39   26   27 2
    40   26   28 ar
    41   27   42 1
    42   28   29 ar
    43   28   44 1
    44   29   30 ar
    45   29   43 1
    46   30   31 ar
@<TRIPOS>SUBSTRUCTURE
     1 ATP         1 GROUP 0 A     ****
@<TRIPOS>MOLECULE
[[[3,4-dihydroxy-5-(6-imino-1~{H}-purin-9-yl)tetrahydrofuran-2-yl]methoxy-oxido-phosphoryl]oxy-oxido-phosphoryl] hydrogen phosphate
   44    46     1     0     0
SMALL
USER_CHARGES

@<TRIPOS>ATOM
      1 PG          6.6756    3.7253    5.7498 P.3       1 ATP         1.5257
      2 O1G         7.1091    5.1486    6.0213 O.co2     1 ATP        -0.8737
      3 O2G         7.5019    2.5551    6.2352 O.co2     1 ATP        -0.8737
      4 O3G         5.1453    3.5377    6.2871 O.3       1 ATP        -0.7971
      5 PB          7.4426    3.6043    2.8966 P.3       1 ATP         1.6824
      6 O1B         7.9794    5.0128    2.7729 O.co2     1 ATP        -0.8925
      7 O2B         8.3740    2.4162    2.9893 O.co2     1 ATP        -0.8925
      8 O3B         6.3988    3.5502    4.1509 O.3       1 ATP        -0.8047
      9 PA          5.0664    4.2077    1.2399 P.3       1 ATP         1.5908
     10 O1A         5.5244    5.5584    0.7338 O.co2     1 ATP        -0.8932
     11 O2A         4.0307    4.1037    2.3381 O.co2     1 ATP        -0.8932
     12 O3A         6.3780    3.3420    1.6872 O.3       1 ATP        -0.8088
     13 O5'         4.5670    3.2937   -0.0211 O.3       1 ATP        -0.5646
     14 C5'         4.0922    1.9801    0.2227 C.3       1 ATP         0.2204
     15 C4'         2.5944    2.0310    0.4653 C.3       1 ATP         0.0965
     16 O4'         1.9327    2.5740   -0.6889 O.3       1 ATP        -0.3907
     17 C3'         1.9685    0.6634    0.6767 C.3       1 ATP         0.0763
     18 O3'         2.1425    0.1975    1.9977 O.3       1 ATP        -0.5884
     19 C2'         0.5176    0.9128    0.3099 C.3       1 ATP         0.0784
     20 O2'        -0.2103    1.4454    1.4152 O.3       1 ATP        -0.6085
     21 C1'         0.6219    1.9765   -0.7844 C.3       1 ATP         0.2186
     22 N9          0.4237    1.4496   -2.1357 N.pl3     1 ATP        -0.1699
     23 C8          1.4069    0.9710   -2.9662 C.ar      1 ATP         0.4438
     24 N7          0.9316    0.5623   -4.1260 N.2       1 ATP        -0.6280
     25 C5         -0.4120    0.7884   -4.0344 C.ar      1 ATP         0.2109
     26 C6         -1.4353    0.5283   -5.0204 C.ar      1 ATP         0.6180
     27 N6         -1.1199    0.0176   -6.1586 N.2       1 ATP        -0.8319
     28 N1         -2.6704    0.9095   -4.5147 N.pl3     1 ATP        -0.8664
     29 C2         -2.8863    1.4571   -3.2520 C.ar      1 ATP         0.5952
     30 N3         -1.9805    1.7017   -2.3442 N.2       1 ATP        -0.5599
     31 C4         -0.7561    1.3381   -2.8112 C.ar      1 ATP         0.0076
     32 HOG3        4.7178    2.6611    6.1823 H         1 ATP         0.4101
     33 H5'1        4.3179    1.3548   -0.6470 H         1 ATP         0.0364
     34 H5'2        4.6083    1.5737    1.0983 H         1 ATP         0.0364
     35 H4'         2.3752    2.7029    1.3156 H         1 ATP         0.0945
     36 H3'         2.4336   -0.1217   -0.0015 H         1 ATP         0.0703
     37 HO3'        3.0987    0.1465    2.1461 H         1 ATP         0.4099
     38 H2'         0.0316    0.0155   -0.0339 H         1 ATP         0.0676
     39 HO2'       -0.1608    0.7921    2.1351 H         1 ATP         0.4291
     40 H1'        -0.1474    2.7798   -0.6651 H         1 ATP         0.0950
     41 H8          2.4466    0.9468   -2.6694 H         1 ATP         0.1135
     42 HN62       -1.9661   -0.0965   -6.7275 H         1 ATP         0.3588
     43 H2         -3.9481    1.6825   -3.0660 H         1 ATP         0.0302
     44 H44        -3.4814    0.7753   -5.1133 H         1 ATP         0.4215
@<TRIPOS>BOND
     1    1    2 2
     2    1    3 1
     3    1    4 1
     4    1    8 1
     5    4   32 1
     6    5    6 2
     7    5    7 1
     8    5    8 1
     9    5   12 1
    10    9   10 2
    11    9   11 1
    12    9   12 1
    13    9   13 1
    14   13   14 1
    15   14   15 1
    16   14   33 1
    17   14   34 1
    18   15   16 1
    19   15   17 1
    20   15   35 1
    21   16   21 1
    22   17   18 1
    23   17   19 1
    24   17   36 1
    25   18   37 1
    26   19   20 1
    27   19   21 1
    28   19   38 1
    29   20   39 1
    30   21   22 1
    31   21   40 1
    32   22   23 ar
    33   22   31 ar
    34   23   24 ar
    35   23   41 1
    36   24   25 ar
    37   25   26 ar
    38   25   31 ar
    39   26   27 2
    40   26   28 ar
    41   27   42 1
    42   28   29 ar
    43   28   44 1
    44   29   30 ar
    45   29   43 1
    46   30   31 ar
@<TRIPOS>SUBSTRUCTURE
     1 ATP         1 GROUP 0 A     ****
@<TRIPOS>MOLECULE
[[[3,4-dihydroxy-5-(6-imino-1~{H}-purin-9-yl)tetrahydrofuran-2-yl]methoxy-oxido-phosphoryl]oxy-oxido-phosphoryl] hydrogen phosphate
   44    46     1     0     0
SMALL
USER_CHARGES

@<TRIPOS>ATOM
      1 PG          8.0146   -2.3014   -1.3843 P.3       1 ATP         1.5257
      2 O1G         8.7168   -3.3075   -0.5000 O.co2     1 ATP        -0.8737
      3 O2G         8.6024   -0.9274   -1.6171 O.co2     1 ATP        -0.8737
      4 O3G         7.7289   -2.9956   -2.8343 O.3       1 ATP        -0.7971
      5 PB          5.8845   -1.5131    0.5090 P.3       1 ATP         1.6824
      6 O1B         4.3770   -1.4405    0.4101 O.co2     1 ATP        -0.8925
      7 O2B         6.5608   -2.2017    1.6735 O.co2     1 ATP        -0.8925
      8 O3B         6.4707   -2.1379   -0.8808 O.3       1 ATP        -0.8047
      9 PA          6.3565    1.2771    1.3734 P.3       1 ATP         1.5908
     10 O1A         6.9879    2.4828    0.7118 O.co2     1 ATP        -0.8932
     11 O2A         6.7839    0.8423    2.7584 O.co2     1 ATP        -0.8932
     12 O3A         6.4914   -0.0042    0.3685 O.3       1 ATP        -0.8088
     13 O5'         4.7294    1.4427    1.3696 O.3       1 ATP        -0.5646
     14 C5'         4.0922    1.9801    0.2227 C.3       1 ATP         0.2204
     15 C4'         2.5944    2.0310    0.4653 C.3       1 ATP         0.0965
     16 O4'         1.9327    2.5740   -0.6889 O.3       1 ATP        -0.3907
     17 C3'         1.9685    0.6634    0.6767 C.3       1 ATP         0.0763
     18 O3'         2.1425    0.1975    1.9977 O.3       1 ATP        -0.5884
     19 C2'         0.5176    0.9128    0.3099 C.3       1 ATP         0.0784
     20 O2'        -0.2103    1.4454    1.4152 O.3       1 ATP        -0.6085
     21 C1'         0.6219    1.9765   -0.7844 C.3       1 ATP         0.2186
     22 N9          0.4237    1.4496   -2.1357 N.pl3     1 ATP        -0.1699
     23 C8          1.1891    0.4862   -2.7452 C.ar      1 ATP         0.4438
     24 N7          0.7743    0.2113   -3.9661 N.2       1 ATP        -0.6280
     25 C5         -0.3017    1.0326   -4.1458 C.ar      1 ATP         0.2109
     26 C6         -1.1512    1.1578   -5.3076 C.ar      1 ATP         0.6180
     27 N6         -0.9306    0.4354   -6.3493 N.2       1 ATP        -0.8319
     28 N1         -2.1281    2.1133   -5.0636 N.pl3     1 ATP        -0.8664
     29 C2         -2.2653    2.8370   -3.8811 C.ar      1 ATP         0.5952
     30 N3         -1.5123    2.7429   -2.8189 N.2       1 ATP        -0.5599
     31 C4         -0.5429    1.8121   -3.0273 C.ar      1 ATP         0.0076
     32 HOG3        7.2753   -2.4659   -3.5243 H         1 ATP         0.4101
     33 H5'1        4.4843    2.9854    0.0380 H         1 ATP         0.0364
     34 H5'2        4.3191    1.3446   -0.6392 H         1 ATP         0.0364
     35 H4'         2.3752    2.7029    1.3156 H         1 ATP         0.0945
     36 H3'         2.4336   -0.1217   -0.0015 H         1 ATP         0.0703
     37 HO3'        3.0987    0.1465    2.1461 H         1 ATP         0.4099
     38 H2'         0.0316    0.0155   -0.0339 H         1 ATP         0.0676
     39 HO2'       -0.1608    0.7921    2.1351 H         1 ATP         0.4291
     40 H1'        -0.1474    2.7798   -0.6651 H         1 ATP         0.0950
     41 H8          2.0323    0.0251   -2.2492 H         1 ATP         0.1135
     42 HN62       -1.6261    0.6558   -7.0707 H         1 ATP         0.3588
     43 H2         -3.1123    3.5402   -3.9130 H         1 ATP         0.0302
     44 H44        -2.7975    2.2966   -5.8068 H         1 ATP         0.4215
@<TRIPOS>BOND
     1    1    2 2
     2    1    3 1
     3    1    4 1
     4    1    8 1
     5    4   32 1
     6    5    6 2
     7    5    7 1
     8    5    8 1
     9    5   12 1
    10    9   10 2
    11    9   11 1
    12    9   12 1
    13    9   13 1
    14   13   14 1
    15   14   15 1
    16   14   33 1
    17   14   34 1
    18   15   16 1
    19   15   17 1
    20   15   35 1
    21   16   21 1
    22   17   18 1
    23   17   19 1
    24   17   36 1
    25   18   37 1
    26   19   20 1
    27   19   21 1
    28   19   38 1
    29   20   39 1
    30   21   22 1
    31   21   40 1
    32   22   23 ar
    33   22   31 ar
    34   23   24 ar
    35   23   41 1
    36   24   25 ar
    37   25   26 ar
    38   25   31 ar
    39   26   27 2
    40   26   28 ar
    41   27   42 1
    42   28   29 ar
    43   28   44 1
    44   29   30 ar
    45   29   43 1
    46   30   31 ar
@<TRIPOS>SUBSTRUCTURE
     1 ATP         1 GROUP 0 A     ****
@<TRIPOS>MOLECULE
[[[3,4-dihydroxy-5-(6-imino-1~{H}-purin-9-yl)tetrahydrofuran-2-yl]methoxy-oxido-phosphoryl]oxy-oxido-phosphoryl] hydrogen phosphate
   44    46     1     0     0
SMALL
USER_CHARGES

@<TRIPOS>ATOM
      1 PG         -1.5690    7.1422   -0.7322 P.3       1 ATP         1.5257
      2 O1G        -2.4691    8.3200   -0.4318 O.co2     1 ATP        -0.8737
      3 O2G        -2.1214    5.7352   -0.7839 O.co2     1 ATP        -0.8737
      4 O3G        -0.7749    7.4390   -2.1276 O.3       1 ATP        -0.7971
      5 PB         -0.2454    6.9591    1.9056 P.3       1 ATP         1.6824
      6 O1B         1.2013    6.9175    2.3448 O.co2     1 ATP        -0.8925
      7 O2B        -1.2329    7.9057    2.5508 O.co2     1 ATP        -0.8925
      8 O3B        -0.2953    7.1733    0.2878 O.3       1 ATP        -0.8047
      9 PA         -1.1369    4.4808    3.2540 P.3       1 ATP         1.5908
     10 O1A        -2.2259    5.1046    4.0997 O.co2     1 ATP        -0.8932
     11 O2A         0.1944    4.1006    3.8646 O.co2     1 ATP        -0.8932
     12 O3A        -0.8543    5.4457    1.9661 O.3       1 ATP        -0.8088
     13 O5'        -1.7336    3.1724    2.4750 O.3       1 ATP        -0.5646
     14 C5'        -0.8811    2.4285    1.6206 C.3       1 ATP         0.2204
     15 C4'        -0.1994    1.3333    2.4288 C.3       1 ATP         0.0965
     16 O4'        -1.1285    0.2356    2.5840 O.3       1 ATP        -0.3907
     17 C3'         1.0324    0.7610    1.7344 C.3       1 ATP         0.0763
     18 O3'         1.9175    0.2377    2.7247 O.3       1 ATP        -0.5884
     19 C2'         0.4468   -0.3802    0.9263 C.3       1 ATP         0.0784
     20 O2'         1.3993   -1.3703    0.5961 O.3       1 ATP        -0.6085
     21 C1'        -0.6159   -0.9100    1.8769 C.3       1 ATP         0.2186
     22 N9         -1.7127   -1.6108    1.2130 N.pl3     1 ATP        -0.1699
     23 C8         -2.0868   -2.9137    1.4327 C.ar      1 ATP         0.4438
     24 N7         -3.1125   -3.2756    0.6878 N.2       1 ATP        -0.6280
     25 C5         -3.4079   -2.1580   -0.0391 C.ar      1 ATP         0.2109
     26 C6         -4.4483   -1.9775   -1.0249 C.ar      1 ATP         0.6180
     27 N6         -5.2418   -2.9492   -1.3113 N.2       1 ATP        -0.8319
     28 N1         -4.3937   -0.6823   -1.5211 N.pl3     1 ATP        -0.8664
     29 C2         -3.4770    0.2901   -1.1271 C.ar      1 ATP         0.5952
     30 N3         -2.5289    0.1525   -0.2402 N.2       1 ATP        -0.5599
     31 C4         -2.5564   -1.1096    0.2655 C.ar      1 ATP         0.0076
     32 HOG3       -0.1469    6.7628   -2.4604 H         1 ATP         0.4101
     33 H5'1       -1.4800    1.9927    0.8146 H         1 ATP         0.0364
     34 H5'2       -0.1367    3.1040    1.1872 H         1 ATP         0.0364
     35 H4'         0.0403    1.7078    3.4343 H         1 ATP         0.0945
     36 H3'         1.5907    1.4859    1.1353 H         1 ATP         0.0703
     37 HO3'        2.6839   -0.1150    2.2479 H         1 ATP         0.4099
     38 H2'        -0.0017    0.0018    0.0005 H         1 ATP         0.0676
     39 HO2'        2.0953   -0.9375    0.0709 H         1 ATP         0.4291
     40 H1'        -0.1998   -1.6319    2.6178 H         1 ATP         0.0950
     41 H8         -1.5740   -3.5449    2.1457 H         1 ATP         0.1135
     42 HN62       -5.9117   -2.6433   -2.0256 H         1 ATP         0.3588
     43 H2         -3.6225    1.2454   -1.6553 H         1 ATP         0.0302
     44 H44        -5.0794   -0.4231   -2.2258 H         1 ATP         0.4215
@<TRIPOS>BOND
     1    1    2 2
     2    1    3 1
     3    1    4 1
     4    1    8 1
     5    4   32 1
     6    5    6 2
     7    5    7 1
     8    5    8 1
     9    5   12 1
    10    9   10 2
    11    9   11 1
    12    9   12 1
    13    9   13 1
    14   13   14 1
    15   14   15 1
    16   14   33 1
    17   14   34 1
    18   15   16 1
    19   15   17 1
    20   15   35 1
    21   16   21 1
    22   17   18 1
    23   17   19 1
    24   17   36 1
    25   18   37 1
    26   19   20 1
    27   19   21 1
    28   19   38 1
    29   20   39 1
    30   21   22 1
    31   21   40 1
    32   22   23 ar
    33   22   31 ar
    34   23   24 ar
    35   23   41 1
    36   24   25 ar
    37   25   26 ar
    38   25   31 ar
    39   26   27 2
    40   26   28 ar
    41   27   42 1
    42   28   29 ar
    43   28   44 1
    44   29   30 ar
    45   29   43 1
    46   30   31 ar
@<TRIPOS>SUBSTRUCTURE
     1 ATP         1 GROUP 0 A     ****
@<TRIPOS>MOLECULE
[[[3,4-dihydroxy-5-(6-imino-1~{H}-purin-9-yl)tetrahydrofuran-2-yl]methoxy-oxido-phosphoryl]oxy-oxido-phosphoryl] hydrogen phosphate
   44    46     1     0     0
SMALL
USER_CHARGES

@<TRIPOS>ATOM
      1 PG         -4.1347    6.0507   -2.7066 P.3       1 ATP         1.5257
      2 O1G        -5.4027    6.2420   -1.9046 O.co2     1 ATP        -0.8737
      3 O2G        -4.1492    5.2897   -4.0137 O.co2     1 ATP        -0.8737
      4 O3G        -3.4595    7.5144   -2.9663 O.3       1 ATP        -0.7971
      5 PB         -1.4007    5.1489   -2.0320 P.3       1 ATP         1.6824
      6 O1B        -1.2786    4.0714   -3.0863 O.co2     1 ATP        -0.8925
      7 O2B        -0.7047    6.4823   -2.1904 O.co2     1 ATP        -0.8925
      8 O3B        -2.9842    5.4166   -1.7381 O.3       1 ATP        -0.8047
      9 PA          0.4528    3.9705   -0.0493 P.3       1 ATP         1.5908
     10 O1A         1.4111    5.1388    0.0343 O.co2     1 ATP        -0.8932
     11 O2A         0.8144    2.7281   -0.8338 O.co2     1 ATP        -0.8932
     12 O3A        -0.9922    4.5136   -0.5848 O.3       1 ATP        -0.8088
     13 O5'         0.0178    3.5131    1.4595 O.3       1 ATP        -0.5646
     14 C5'        -0.8811    2.4285    1.6206 C.3       1 ATP         0.2204
     15 C4'        -0.1994    1.3333    2.4288 C.3       1 ATP         0.0965
     16 O4'        -1.1285    0.2356    2.5840 O.3       1 ATP        -0.3907
     17 C3'         1.0324    0.7610    1.7344 C.3       1 ATP         0.0763
     18 O3'         1.9175    0.2377    2.7247 O.3       1 ATP        -0.5884
     19 C2'         0.4468   -0.3802    0.9263 C.3       1 ATP         0.0784
     20 O2'         1.3993   -1.3703    0.5961 O.3       1 ATP        -0.6085
     21 C1'        -0.6159   -0.9100    1.8769 C.3       1 ATP         0.2186
     22 N9         -1.7127   -1.6108    1.2130 N.pl3     1 ATP        -0.1699
     23 C8         -2.5485   -1.0808    0.2609 C.ar      1 ATP         0.4438
     24 N7         -3.4476   -1.9486   -0.1593 N.2       1 ATP        -0.6280
     25 C5         -3.1762   -3.0816    0.5530 C.ar      1 ATP         0.2109
     26 C6         -3.8510   -4.3579    0.5006 C.ar      1 ATP         0.6180
     27 N6         -4.8468   -4.5293   -0.2961 N.2       1 ATP        -0.8319
     28 N1         -3.2499   -5.2342    1.3937 N.pl3     1 ATP        -0.8664
     29 C2         -2.1646   -4.9275    2.2116 C.ar      1 ATP         0.5952
     30 N3         -1.5382   -3.7840    2.2778 N.2       1 ATP        -0.5599
     31 C4         -2.1054   -2.9018    1.4120 C.ar      1 ATP         0.0076
     32 HOG3       -3.1976    8.0523   -2.1889 H         1 ATP         0.4101
     33 H5'1       -1.7771    2.7849    2.1387 H         1 ATP         0.0364
     34 H5'2       -1.1654    2.0541    0.6320 H         1 ATP         0.0364
     35 H4'         0.0403    1.7078    3.4343 H         1 ATP         0.0945
     36 H3'         1.5907    1.4859    1.1353 H         1 ATP         0.0703
     37 HO3'        2.1521    0.9800    3.3017 H         1 ATP         0.4099
     38 H2'        -0.0017    0.0018    0.0005 H         1 ATP         0.0676
     39 HO2'        2.0953   -0.9375    0.0709 H         1 ATP         0.4291
     40 H1'        -0.1998   -1.6319    2.6178 H         1 ATP         0.0950
     41 H8         -2.4515   -0.0599   -0.0829 H         1 ATP         0.1135
     42 HN62       -5.1990   -5.4882   -0.2005 H         1 ATP         0.3588
     43 H2         -1.8555   -5.7783    2.8388 H         1 ATP         0.0302
     44 H44        -3.6312   -6.1750    1.4526 H         1 ATP         0.4215
@<TRIPOS>BOND
     1    1    2 2
     2    1    3 1
     3    1    4 1
     4    1    8 1
     5    4   32 1
     6    5    6 2
     7    5    7 1
     8    5    8 1
     9    5   12 1
    10    9   10 2
    11    9   11 1
    12    9   12 1
    13    9   13 1
    14   13   14 1
    15   14   15 1
    16   14   33 1
    17   14   34 1
    18   15   16 1
    19   15   17 1
    20   15   35 1
    21   16   21 1
    22   17   18 1
    23   17   19 1
    24   17   36 1
    25   18   37 1
    26   19   20 1
    27   19   21 1
    28   19   38 1
    29   20   39 1
    30   21   22 1
    31   21   40 1
    32   22   23 ar
    33   22   31 ar
    34   23   24 ar
    35   23   41 1
    36   24   25 ar
    37   25   26 ar
    38   25   31 ar
    39   26   27 2
    40   26   28 ar
    41   27   42 1
    42   28   29 ar
    43   28   44 1
    44   29   30 ar
    45   29   43 1
    46   30   31 ar
@<TRIPOS>SUBSTRUCTURE
     1 ATP         1 GROUP 0 A     ****
@<TRIPOS>MOLECULE
[[[3,4-dihydroxy-5-(6-imino-1~{H}-purin-9-yl)tetrahydrofuran-2-yl]methoxy-oxido-phosphoryl]oxy-oxido-phosphoryl] hydrogen phosphate
   44    46     1     0     0
SMALL
USER_CHARGES

@<TRIPOS>ATOM
      1 PG         -2.5110    4.9863    8.0749 P.3       1 ATP         1.5257
      2 O1G        -1.9089    6.3717    8.1505 O.co2     1 ATP        -0.8737
      3 O2G        -2.2668    3.9718    9.1698 O.co2     1 ATP        -0.8737
      4 O3G        -4.1221    5.1324    7.8534 O.3       1 ATP        -0.7971
      5 PB         -0.6704    3.8529    6.0572 P.3       1 ATP         1.6824
      6 O1B         0.1846    5.0834    5.8516 O.co2     1 ATP        -0.8925
      7 O2B        -0.1735    2.6813    6.8745 O.co2     1 ATP        -0.8925
      8 O3B        -2.1242    4.3168    6.6376 O.3       1 ATP        -0.8047
      9 PA         -1.9156    4.0918    3.3837 P.3       1 ATP         1.5908
     10 O1A        -0.9829    5.1484    2.8323 O.co2     1 ATP        -0.8932
     11 O2A        -3.3087    4.4562    3.8486 O.co2     1 ATP        -0.8932
     12 O3A        -1.1581    3.3049    4.5989 O.3       1 ATP        -0.8088
     13 O5'        -2.0401    2.8620    2.3128 O.3       1 ATP        -0.5646
     14 C5'        -0.8811    2.4285    1.6206 C.3       1 ATP         0.2204
     15 C4'        -0.1994    1.3333    2.4288 C.3       1 ATP         0.0965
     16 O4'        -1.1285    0.2356    2.5840 O.3       1 ATP        -0.3907
     17 C3'         1.0324    0.7610    1.7344 C.3       1 ATP         0.0763
     18 O3'         1.9175    0.2377    2.7247 O.3       1 ATP        -0.5884
     19 C2'         0.4468   -0.3802    0.9263 C.3       1 ATP         0.0784
     20 O2'         1.3993   -1.3703    0.5961 O.3       1 ATP        -0.6085
     21 C1'        -0.6159   -0.9100    1.8769 C.3       1 ATP         0.2186
     22 N9         -1.7127   -1.6108    1.2130 N.pl3     1 ATP        -0.1699
     23 C8         -2.5485   -1.0808    0.2609 C.ar      1 ATP         0.4438
     24 N7         -3.4476   -1.9486   -0.1593 N.2       1 ATP        -0.6280
     25 C5         -3.1762   -3.0816    0.5530 C.ar      1 ATP         0.2109
     26 C6         -3.8510   -4.3579    0.5006 C.ar      1 ATP         0.6180
     27 N6         -4.8468   -4.5293   -0.2961 N.2       1 ATP        -0.8319
     28 N1         -3.2499   -5.2342    1.3937 N.pl3     1 ATP        -0.8664
     29 C2         -2.1646   -4.9275    2.2116 C.ar      1 ATP         0.5952
     30 N3         -1.5382   -3.7840    2.2778 N.2       1 ATP        -0.5599
     31 C4         -2.1054   -2.9018    1.4120 C.ar      1 ATP         0.0076
     32 HOG3       -4.4429    5.6001    7.0530 H         1 ATP         0.4101
     33 H5'1       -1.1767    2.0502    0.6368 H         1 ATP         0.0364
     34 H5'2       -0.2080    3.2814    1.4876 H         1 ATP         0.0364
     35 H4'         0.0403    1.7078    3.4343 H         1 ATP         0.0945
     36 H3'         1.5907    1.4859    1.1353 H         1 ATP         0.0703
     37 HO3'        2.6839   -0.1150    2.2479 H         1 ATP         0.4099
     38 H2'        -0.0017    0.0018    0.0005 H         1 ATP         0.0676
     39 HO2'        2.0953   -0.9375    0.0709 H         1 ATP         0.4291
     40 H1'        -0.1998   -1.6319    2.6178 H         1 ATP         0.0950
     41 H8         -2.4515   -0.0599   -0.0829 H         1 ATP         0.1135
     42 HN62       -5.1990   -5.4882   -0.2005 H         1 ATP         0.3588
     43 H2         -1.8555   -5.7783    2.8388 H         1 ATP         0.0302
     44 H44        -3.6312   -6.1750    1.4526 H         1 ATP         0.4215
@<TRIPOS>BOND
     1    1    2 2
     2    1    3 1
     3    1    4 1
     4    1    8 1
     5    4   32 1
     6    5    6 2
     7    5    7 1
     8    5    8 1
     9    5   12 1
    10    9   10 2
    11    9   11 1
    12    9   12 1
    13    9   13 1
    14   13   14 1
    15   14   15 1
    16   14   33 1
    17   14   34 1
    18   15   16 1
    19   15   17 1
    20   15   35 1
    21   16   21 1
    22   17   18 1
    23   17   19 1
    24   17   36 1
    25   18   37 1
    26   19   20 1
    27   19   21 1
    28   19   38 1
    29   20   39 1
    30   21   22 1
    31   21   40 1
    32   22   23 ar
    33   22   31 ar
    34   23   24 ar
    35   23   41 1
    36   24   25 ar
    37   25   26 ar
    38   25   31 ar
    39   26   27 2
    40   26   28 ar
    41   27   42 1
    42   28   29 ar
    43   28   44 1
    44   29   30 ar
    45   29   43 1
    46   30   31 ar
@<TRIPOS>SUBSTRUCTURE
     1 ATP         1 GROUP 0 A     ****
@<TRIPOS>MOLECULE
[[[3,4-dihydroxy-5-(6-imino-1~{H}-purin-9-yl)tetrahydrofuran-2-yl]methoxy-oxido-phosphoryl]oxy-oxido-phosphoryl] hydrogen phosphate
   44    46     1     0     0
SMALL
USER_CHARGES

@<TRIPOS>ATOM
      1 PG         -0.7926    9.4352    2.9452 P.3       1 ATP         1.5257
      2 O1G        -2.0121   10.1347    2.3875 O.co2     1 ATP        -0.8737
      3 O2G         0.6002    9.9402    2.6407 O.co2     1 ATP        -0.8737
      4 O3G        -0.9584    9.3163    4.5652 O.3       1 ATP        -0.7971
      5 PB         -2.0719    6.7716    2.8355 P.3       1 ATP         1.6824
      6 O1B        -2.2077    6.5525    4.3258 O.co2     1 ATP        -0.8925
      7 O2B        -3.2644    7.1563    1.9884 O.co2     1 ATP        -0.8925
      8 O3B        -0.8733    7.8484    2.5719 O.3       1 ATP        -0.8047
      9 PA          0.0330    4.7083    2.5757 P.3       1 ATP         1.5908
     10 O1A        -0.1146    4.1098    3.9578 O.co2     1 ATP        -0.8932
     11 O2A         1.1815    5.6399    2.2548 O.co2     1 ATP        -0.8932
     12 O3A        -1.3630    5.4574    2.1758 O.3       1 ATP        -0.8088
     13 O5'         0.0178    3.5131    1.4595 O.3       1 ATP        -0.5646
     14 C5'        -0.8811    2.4285    1.6206 C.3       1 ATP         0.2204
     15 C4'        -0.1994    1.3333    2.4288 C.3       1 ATP         0.0965
     16 O4'        -1.1285    0.2356    2.5840 O.3       1 ATP        -0.3907
     17 C3'         1.0324    0.7610    1.7344 C.3       1 ATP         0.0763
     18 O3'         1.9175    0.2377    2.7247 O.3       1 ATP        -0.5884
     19 C2'         0.4468   -0.3802    0.9263 C.3       1 ATP         0.0784
     20 O2'         1.3993   -1.3703    0.5961 O.3       1 ATP        -0.6085
     21 C1'        -0.6159   -0.9100    1.8769 C.3       1 ATP         0.2186
     22 N9         -1.7127   -1.6108    1.2130 N.pl3     1 ATP        -0.1699
     23 C8         -1.7690   -2.9583    0.9549 C.ar      1 ATP         0.4438
     24 N7         -2.8827   -3.3076    0.3418 N.2       1 ATP        -0.6280
     25 C5         -3.5683   -2.1351    0.2017 C.ar      1 ATP         0.2109
     26 C6         -4.8617   -1.9185   -0.4044 C.ar      1 ATP         0.6180
     27 N6         -5.5166   -2.9094   -0.8993 N.2       1 ATP        -0.8319
     28 N1         -5.1837   -0.5701   -0.3344 N.pl3     1 ATP        -0.8664
     29 C2         -4.3821    0.4180    0.2330 C.ar      1 ATP         0.5952
     30 N3         -3.2117    0.2488    0.7860 N.2       1 ATP        -0.5599
     31 C4         -2.8672   -1.0657    0.7327 C.ar      1 ATP         0.0076
     32 HOG3       -1.7277    8.8224    4.9208 H         1 ATP         0.4101
     33 H5'1       -1.7771    2.7849    2.1387 H         1 ATP         0.0364
     34 H5'2       -1.1654    2.0541    0.6320 H         1 ATP         0.0364
     35 H4'         0.0403    1.7078    3.4343 H         1 ATP         0.0945
     36 H3'         1.5907    1.4859    1.1353 H         1 ATP         0.0703
     37 HO3'        2.1521    0.9800    3.3017 H         1 ATP         0.4099
     38 H2'        -0.0017    0.0018    0.0005 H         1 ATP         0.0676
     39 HO2'        2.0953   -0.9375    0.0709 H         1 ATP         0.4291
     40 H1'        -0.1998   -1.6319    2.6178 H         1 ATP         0.0950
     41 H8         -0.9697   -3.6300    1.2371 H         1 ATP         0.1135
     42 HN62       -6.4060   -2.5723   -1.2840 H         1 ATP         0.3588
     43 H2         -4.8409    1.4176    0.1757 H         1 ATP         0.0302
     44 H44        -6.0768   -0.2826   -0.7263 H         1 ATP         0.4215
@<TRIPOS>BOND
     1    1    2 2
     2    1    3 1
     3    1    4 1
     4    1    8 1
     5    4   32 1
     6    5    6 2
     7    5    7 1
     8    5    8 1
     9    5   12 1
    10    9   10 2
    11    9   11 1
    12    9   12 1
    13    9   13 1
    14   13   14 1
    15   14   15 1
    16   14   33 1
    17   14   34 1
    18   15   16 1
    19   15   17 1
    20   15   35 1
    21   16   21 1
    22   17   18 1
    23   17   19 1
    24   17   36 1
    25   18   37 1
    26   19   20 1
    27   19   21 1
    28   19   38 1
    29   20   39 1
    30   21   22 1
    31   21   40 1
    32   22   23 ar
    33   22   31 ar
    34   23   24 ar
    35   23   41 1
    36   24   25 ar
    37   25   26 ar
    38   25   31 ar
    39   26   27 2
    40   26   28 ar
    41   27   42 1
    42   28   29 ar
    43   28   44 1
    44   29   30 ar
    45   29   43 1
    46   30   31 ar
@<TRIPOS>SUBSTRUCTURE
     1 ATP         1 GROUP 0 A     ****
@<TRIPOS>MOLECULE
[[[3,4-dihydroxy-5-(6-imino-1~{H}-purin-9-yl)tetrahydrofuran-2-yl]methoxy-oxido-phosphoryl]oxy-oxido-phosphoryl] hydrogen phosphate
   44    46     1     0     0
SMALL
USER_CHARGES

@<TRIPOS>ATOM
      1 PG          0.0840    4.7188   -4.2182 P.3       1 ATP         1.5257
      2 O1G         0.7757    3.4495   -4.6631 O.co2     1 ATP        -0.8737
      3 O2G         0.6788    6.0758   -4.5226 O.co2     1 ATP        -0.8737
      4 O3G        -1.4534    4.6916   -4.7674 O.3       1 ATP        -0.7971
      5 PB         -1.0761    5.6290   -1.6551 P.3       1 ATP         1.6824
      6 O1B        -0.3399    6.9467   -1.5581 O.co2     1 ATP        -0.8925
      7 O2B        -2.5316    5.5731   -2.0625 O.co2     1 ATP        -0.8925
      8 O3B        -0.2239    4.6231   -2.6182 O.3       1 ATP        -0.8047
      9 PA          0.4655    4.4361    0.5710 P.3       1 ATP         1.5908
     10 O1A         1.1233    5.7111    1.0526 O.co2     1 ATP        -0.8932
     11 O2A         1.2411    3.4267   -0.2470 O.co2     1 ATP        -0.8932
     12 O3A        -0.8949    4.8235   -0.2469 O.3       1 ATP        -0.8088
     13 O5'        -0.2062    3.6557    1.8417 O.3       1 ATP        -0.5646
     14 C5'        -0.8811    2.4285    1.6206 C.3       1 ATP         0.2204
     15 C4'        -0.1994    1.3333    2.4288 C.3       1 ATP         0.0965
     16 O4'        -1.1285    0.2356    2.5840 O.3       1 ATP        -0.3907
     17 C3'         1.0324    0.7610    1.7344 C.3       1 ATP         0.0763
     18 O3'         1.9175    0.2377    2.7247 O.3       1 ATP        -0.5884
     19 C2'         0.4468   -0.3802    0.9263 C.3       1 ATP         0.0784
     20 O2'         1.3993   -1.3703    0.5961 O.3       1 ATP        -0.6085
     21 C1'        -0.6159   -0.9100    1.8769 C.3       1 ATP         0.2186
     22 N9         -1.7127   -1.6108    1.2130 N.pl3     1 ATP        -0.1699
     23 C8         -1.7690   -2.9583    0.9549 C.ar      1 ATP         0.4438
     24 N7         -2.8827   -3.3076    0.3418 N.2       1 ATP        -0.6280
     25 C5         -3.5683   -2.1351    0.2017 C.ar      1 ATP         0.2109
     26 C6         -4.8617   -1.9185   -0.4044 C.ar      1 ATP         0.6180
     27 N6         -5.5166   -2.9094   -0.8993 N.2       1 ATP        -0.8319
     28 N1         -5.1837   -0.5701   -0.3344 N.pl3     1 ATP        -0.8664
     29 C2         -4.3821    0.4180    0.2330 C.ar      1 ATP         0.5952
     30 N3         -3.2117    0.2488    0.7860 N.2       1 ATP        -0.5599
     31 C4         -2.8672   -1.0657    0.7327 C.ar      1 ATP         0.0076
     32 HOG3       -2.0369    5.4522   -4.5595 H         1 ATP         0.4101
     33 H5'1       -1.9256    2.5380    1.9293 H         1 ATP         0.0364
     34 H5'2       -0.8474    2.1930    0.5521 H         1 ATP         0.0364
     35 H4'         0.0403    1.7078    3.4343 H         1 ATP         0.0945
     36 H3'         1.5907    1.4859    1.1353 H         1 ATP         0.0703
     37 HO3'        2.6839   -0.1150    2.2479 H         1 ATP         0.4099
     38 H2'        -0.0017    0.0018    0.0005 H         1 ATP         0.0676
     39 HO2'        0.9369   -2.0558    0.0825 H         1 ATP         0.4291
     40 H1'        -0.1998   -1.6319    2.6178 H         1 ATP         0.0950
     41 H8         -0.9697   -3.6300    1.2371 H         1 ATP         0.1135
     42 HN62       -6.4060   -2.5723   -1.2840 H         1 ATP         0.3588
     43 H2         -4.8409    1.4176    0.1757 H         1 ATP         0.0302
     44 H44        -6.0768   -0.2826   -0.7263 H         1 ATP         0.4215
@<TRIPOS>BOND
     1    1    2 2
     2    1    3 1
     3    1    4 1
     4    1    8 1
     5    4   32 1
     6    5    6 2
     7    5    7 1
     8    5    8 1
     9    5   12 1
    10    9   10 2
    11    9   11 1
    12    9   12 1
    13    9   13 1
    14   13   14 1
    15   14   15 1
    16   14   33 1
    17   14   34 1
    18   15   16 1
    19   15   17 1
    20   15   35 1
    21   16   21 1
    22   17   18 1
    23   17   19 1
    24   17   36 1
    25   18   37 1
    26   19   20 1
    27   19   21 1
    28   19   38 1
    29   20   39 1
    30   21   22 1
    31   21   40 1
    32   22   23 ar
    33   22   31 ar
    34   23   24 ar
    35   23   41 1
    36   24   25 ar
    37   25   26 ar
    38   25   31 ar
    39   26   27 2
    40   26   28 ar
    41   27   42 1
    42   28   29 ar
    43   28   44 1
    44   29   30 ar
    45   29   43 1
    46   30   31 ar
@<TRIPOS>SUBSTRUCTURE
     1 ATP         1 GROUP 0 A     ****
@<TRIPOS>MOLECULE
[[[3,4-dihydroxy-5-(6-imino-1~{H}-purin-9-yl)tetrahydrofuran-2-yl]methoxy-oxido-phosphoryl]oxy-oxido-phosphoryl] hydrogen phosphate
   44    46     1     0     0
SMALL
USER_CHARGES

@<TRIPOS>ATOM
      1 PG          6.9075    5.5656   -0.5725 P.3       1 ATP         1.5257
      2 O1G         8.0337    5.6457    0.4339 O.co2     1 ATP        -0.8737
      3 O2G         5.5338    5.0813   -0.1648 O.co2     1 ATP        -0.8737
      4 O3G         6.7510    7.0225   -1.2928 O.3       1 ATP        -0.7971
      5 PB          7.7948    3.1220   -1.9814 P.3       1 ATP         1.6824
      6 O1B         8.0363    2.7879   -3.4366 O.co2     1 ATP        -0.8925
      7 O2B         8.8220    2.7931   -0.9212 O.co2     1 ATP        -0.8925
      8 O3B         7.4101    4.7044   -1.8646 O.3       1 ATP        -0.8047
      9 PA          5.8979    0.9309   -1.3848 P.3       1 ATP         1.5908
     10 O1A         6.6883    0.2943   -0.2622 O.co2     1 ATP        -0.8932
     11 O2A         5.8763    0.3098   -2.7645 O.co2     1 ATP        -0.8932
     12 O3A         6.3576    2.4919   -1.5315 O.3       1 ATP        -0.8088
     13 O5'         4.3516    1.1575   -0.9026 O.3       1 ATP        -0.5646
     14 C5'         4.0922    1.9801    0.2227 C.3       1 ATP         0.2204
     15 C4'         2.5944    2.0310    0.4653 C.3       1 ATP         0.0965
     16 O4'         1.9327    2.5740   -0.6889 O.3       1 ATP        -0.3907
     17 C3'         1.9685    0.6634    0.6767 C.3       1 ATP         0.0763
     18 O3'         2.1425    0.1975    1.9977 O.3       1 ATP        -0.5884
     19 C2'         0.5176    0.9128    0.3099 C.3       1 ATP         0.0784
     20 O2'        -0.2103    1.4454    1.4152 O.3       1 ATP        -0.6085
     21 C1'         0.6219    1.9765   -0.7844 C.3       1 ATP         0.2186
     22 N9          0.4237    1.4496   -2.1357 N.pl3     1 ATP        -0.1699
     23 C8          1.4069    0.9710   -2.9662 C.ar      1 ATP         0.4438
     24 N7          0.9316    0.5623   -4.1260 N.2       1 ATP        -0.6280
     25 C5         -0.4120    0.7884   -4.0344 C.ar      1 ATP         0.2109
     26 C6         -1.4353    0.5283   -5.0204 C.ar      1 ATP         0.6180
     27 N6         -1.1199    0.0176   -6.1586 N.2       1 ATP        -0.8319
     28 N1         -2.6704    0.9095   -4.5147 N.pl3     1 ATP        -0.8664
     29 C2         -2.8863    1.4571   -3.2520 C.ar      1 ATP         0.5952
     30 N3         -1.9805    1.7017   -2.3442 N.2       1 ATP        -0.5599
     31 C4         -0.7561    1.3381   -2.8112 C.ar      1 ATP         0.0076
     32 HOG3        6.0564    7.1330   -1.9767 H         1 ATP         0.4101
     33 H5'1        4.6069    1.5618    1.0936 H         1 ATP         0.0364
     34 H5'2        4.4824    2.9837    0.0254 H         1 ATP         0.0364
     35 H4'         2.3752    2.7029    1.3156 H         1 ATP         0.0945
     36 H3'         2.4336   -0.1217   -0.0015 H         1 ATP         0.0703
     37 HO3'        1.7160   -0.6716    2.0397 H         1 ATP         0.4099
     38 H2'         0.0316    0.0155   -0.0339 H         1 ATP         0.0676
     39 HO2'       -1.1270    1.5823    1.1180 H         1 ATP         0.4291
     40 H1'        -0.1474    2.7798   -0.6651 H         1 ATP         0.0950
     41 H8          2.4466    0.9468   -2.6694 H         1 ATP         0.1135
     42 HN62       -1.9661   -0.0965   -6.7275 H         1 ATP         0.3588
     43 H2         -3.9481    1.6825   -3.0660 H         1 ATP         0.0302
     44 H44        -3.4814    0.7753   -5.1133 H         1 ATP         0.4215
@<TRIPOS>BOND
     1    1    2 2
     2    1    3 1
     3    1    4 1
     4    1    8 1
     5    4   32 1
     6    5    6 2
     7    5    7 1
     8    5    8 1
     9    5   12 1
    10    9   10 2
    11    9   11 1
    12    9   12 1
    13    9   13 1
    14   13   14 1
    15   14   15 1
    16   14   33 1
    17   14   34 1
    18   15   16 1
    19   15   17 1
    20   15   35 1
    21   16   21 1
    22   17   18 1
    23   17   19 1
    24   17   36 1
    25   18   37 1
    26   19   20 1
    27   19   21 1
    28   19   38 1
    29   20   39 1
    30   21   22 1
    31   21   40 1
    32   22   23 ar
    33   22   31 ar
    34   23   24 ar
    35   23   41 1
    36   24   25 ar
    37   25   26 ar
    38   25   31 ar
    39   26   27 2
    40   26   28 ar
    41   27   42 1
    42   28   29 ar
    43   28   44 1
    44   29   30 ar
    45   29   43 1
    46   30   31 ar
@<TRIPOS>SUBSTRUCTURE
     1 ATP         1 GROUP 0 A     ****
@<TRIPOS>MOLECULE
[[[3,4-dihydroxy-5-(6-imino-1~{H}-purin-9-yl)tetrahydrofuran-2-yl]methoxy-oxido-phosphoryl]oxy-oxido-phosphoryl] hydrogen phosphate
   44    46     1     0     0
SMALL
USER_CHARGES

@<TRIPOS>ATOM
      1 PG          1.2720    6.0546    6.4084 P.3       1 ATP         1.5257
      2 O1G         2.3400    5.2745    7.1420 O.co2     1 ATP        -0.8737
      3 O2G         0.3650    7.0140    7.1465 O.co2     1 ATP        -0.8737
      4 O3G         1.9725    6.8534    5.1686 O.3       1 ATP        -0.7971
      5 PB         -0.6704    3.8529    6.0572 P.3       1 ATP         1.6824
      6 O1B         0.1311    2.7671    6.7399 O.co2     1 ATP        -0.8925
      7 O2B        -1.8455    4.5100    6.7464 O.co2     1 ATP        -0.8925
      8 O3B         0.3542    5.0167    5.5458 O.3       1 ATP        -0.8047
      9 PA         -1.9156    4.0918    3.3837 P.3       1 ATP         1.5908
     10 O1A        -0.9829    5.1484    2.8323 O.co2     1 ATP        -0.8932
     11 O2A        -3.3087    4.4562    3.8486 O.co2     1 ATP        -0.8932
     12 O3A        -1.1581    3.3049    4.5989 O.3       1 ATP        -0.8088
     13 O5'        -2.0401    2.8620    2.3128 O.3       1 ATP        -0.5646
     14 C5'        -0.8811    2.4285    1.6206 C.3       1 ATP         0.2204
     15 C4'        -0.1994    1.3333    2.4288 C.3       1 ATP         0.0965
     16 O4'        -1.1285    0.2356    2.5840 O.3       1 ATP        -0.3907
     17 C3'         1.0324    0.7610    1.7344 C.3       1 ATP         0.0763
     18 O3'         1.9175    0.2377    2.7247 O.3       1 ATP        -0.5884
     19 C2'         0.4468   -0.3802    0.9263 C.3       1 ATP         0.0784
     20 O2'         1.3993   -1.3703    0.5961 O.3       1 ATP        -0.6085
     21 C1'        -0.6159   -0.9100    1.8769 C.3       1 ATP         0.2186
     22 N9         -1.7127   -1.6108    1.2130 N.pl3     1 ATP        -0.1699
     23 C8         -2.0868   -2.9137    1.4327 C.ar      1 ATP         0.4438
     24 N7         -3.1125   -3.2756    0.6878 N.2       1 ATP        -0.6280
     25 C5         -3.4079   -2.1580   -0.0391 C.ar      1 ATP         0.2109
     26 C6         -4.4483   -1.9775   -1.0249 C.ar      1 ATP         0.6180
     27 N6         -5.2418   -2.9492   -1.3113 N.2       1 ATP        -0.8319
     28 N1         -4.3937   -0.6823   -1.5211 N.pl3     1 ATP        -0.8664
     29 C2         -3.4770    0.2901   -1.1271 C.ar      1 ATP         0.5952
     30 N3         -2.5289    0.1525   -0.2402 N.2       1 ATP        -0.5599
     31 C4         -2.5564   -1.1096    0.2655 C.ar      1 ATP         0.0076
     32 HOG3        1.4063    7.4097    4.5922 H         1 ATP         0.4101
     33 H5'1       -1.1767    2.0502    0.6368 H         1 ATP         0.0364
     34 H5'2       -0.2080    3.2814    1.4876 H         1 ATP         0.0364
     35 H4'         0.0403    1.7078    3.4343 H         1 ATP         0.0945
     36 H3'         1.5907    1.4859    1.1353 H         1 ATP         0.0703
     37 HO3'        2.1521    0.9800    3.3017 H         1 ATP         0.4099
     38 H2'        -0.0017    0.0018    0.0005 H         1 ATP         0.0676
     39 HO2'        2.0953   -0.9375    0.0709 H         1 ATP         0.4291
     40 H1'        -0.1998   -1.6319    2.6178 H         1 ATP         0.0950
     41 H8         -1.5740   -3.5449    2.1457 H         1 ATP         0.1135
     42 HN62       -5.9117   -2.6433   -2.0256 H         1 ATP         0.3588
     43 H2         -3.6225    1.2454   -1.6553 H         1 ATP         0.0302
     44 H44        -5.0794   -0.4231   -2.2258 H         1 ATP         0.4215
@<TRIPOS>BOND
     1    1    2 2
     2    1    3 1
     3    1    4 1
     4    1    8 1
     5    4   32 1
     6    5    6 2
     7    5    7 1
     8    5    8 1
     9    5   12 1
    10    9   10 2
    11    9   11 1
    12    9   12 1
    13    9   13 1
    14   13   14 1
    15   14   15 1
    16   14   33 1
    17   14   34 1
    18   15   16 1
    19   15   17 1
    20   15   35 1
    21   16   21 1
    22   17   18 1
    23   17   19 1
    24   17   36 1
    25   18   37 1
    26   19   20 1
    27   19   21 1
    28   19   38 1
    29   20   39 1
    30   21   22 1
    31   21   40 1
    32   22   23 ar
    33   22   31 ar
    34   23   24 ar
    35   23   41 1
    36   24   25 ar
    37   25   26 ar
    38   25   31 ar
    39   26   27 2
    40   26   28 ar
    41   27   42 1
    42   28   29 ar
    43   28   44 1
    44   29   30 ar
    45   29   43 1
    46   30   31 ar
@<TRIPOS>SUBSTRUCTURE
     1 ATP         1 GROUP 0 A     ****
@<TRIPOS>MOLECULE
[[[3,4-dihydroxy-5-(6-imino-1~{H}-purin-9-yl)tetrahydrofuran-2-yl]methoxy-oxido-phosphoryl]oxy-oxido-phosphoryl] hydrogen phosphate
   44    46     1     0     0
SMALL
USER_CHARGES

@<TRIPOS>ATOM
      1 PG          9.5478    0.4906   -1.5063 P.3       1 ATP         1.5257
      2 O1G         8.5852   -0.6210   -1.8602 O.co2     1 ATP        -0.8737
      3 O2G        10.7625    0.2223   -0.6459 O.co2     1 ATP        -0.8737
      4 O3G        10.0393    1.2103   -2.8871 O.3       1 ATP        -0.7971
      5 PB          7.8888    1.8275    0.5440 P.3       1 ATP         1.6824
      6 O1B         8.8081    1.4078    1.6692 O.co2     1 ATP        -0.8925
      7 O2B         7.1480    3.1454    0.5879 O.co2     1 ATP        -0.8925
      8 O3B         8.7094    1.7351   -0.8645 O.3       1 ATP        -0.8047
      9 PA          5.6073    0.0705    1.2242 P.3       1 ATP         1.5908
     10 O1A         6.1850   -0.3040    2.5719 O.co2     1 ATP        -0.8932
     11 O2A         4.7962   -0.9269    0.4261 O.co2     1 ATP        -0.8932
     12 O3A         6.8124    0.6304    0.2735 O.3       1 ATP        -0.8088
     13 O5'         4.7294    1.4427    1.3696 O.3       1 ATP        -0.5646
     14 C5'         4.0922    1.9801    0.2227 C.3       1 ATP         0.2204
     15 C4'         2.5944    2.0310    0.4653 C.3       1 ATP         0.0965
     16 O4'         1.9327    2.5740   -0.6889 O.3       1 ATP        -0.3907
     17 C3'         1.9685    0.6634    0.6767 C.3       1 ATP         0.0763
     18 O3'         2.1425    0.1975    1.9977 O.3       1 ATP        -0.5884
     19 C2'         0.5176    0.9128    0.3099 C.3       1 ATP         0.0784
     20 O2'        -0.2103    1.4454    1.4152 O.3       1 ATP        -0.6085
     21 C1'         0.6219    1.9765   -0.7844 C.3       1 ATP         0.2186
     22 N9          0.4237    1.4496   -2.1357 N.pl3     1 ATP        -0.1699
     23 C8          1.4069    0.9710   -2.9662 C.ar      1 ATP         0.4438
     24 N7          0.9316    0.5623   -4.1260 N.2       1 ATP        -0.6280
     25 C5         -0.4120    0.7884   -4.0344 C.ar      1 ATP         0.2109
     26 C6         -1.4353    0.5283   -5.0204 C.ar      1 ATP         0.6180
     27 N6         -1.1199    0.0176   -6.1586 N.2       1 ATP        -0.8319
     28 N1         -2.6704    0.9095   -4.5147 N.pl3     1 ATP        -0.8664
     29 C2         -2.8863    1.4571   -3.2520 C.ar      1 ATP         0.5952
     30 N3         -1.9805    1.7017   -2.3442 N.2       1 ATP        -0.5599
     31 C4         -0.7561    1.3381   -2.8112 C.ar      1 ATP         0.0076
     32 HOG3       10.6719    1.9574   -2.8246 H         1 ATP         0.4101
     33 H5'1        4.4843    2.9854    0.0380 H         1 ATP         0.0364
     34 H5'2        4.3191    1.3446   -0.6392 H         1 ATP         0.0364
     35 H4'         2.3752    2.7029    1.3156 H         1 ATP         0.0945
     36 H3'         2.4336   -0.1217   -0.0015 H         1 ATP         0.0703
     37 HO3'        1.7160   -0.6716    2.0397 H         1 ATP         0.4099
     38 H2'         0.0316    0.0155   -0.0339 H         1 ATP         0.0676
     39 HO2'       -0.1608    0.7921    2.1351 H         1 ATP         0.4291
     40 H1'        -0.1474    2.7798   -0.6651 H         1 ATP         0.0950
     41 H8          2.4466    0.9468   -2.6694 H         1 ATP         0.1135
     42 HN62       -1.9661   -0.0965   -6.7275 H         1 ATP         0.3588
     43 H2         -3.9481    1.6825   -3.0660 H         1 ATP         0.0302
     44 H44        -3.4814    0.7753   -5.1133 H         1 ATP         0.4215
@<TRIPOS>BOND
     1    1    2 2
     2    1    3 1
     3    1    4 1
     4    1    8 1
     5    4   32 1
     6    5    6 2
     7    5    7 1
     8    5    8 1
     9    5   12 1
    10    9   10 2
    11    9   11 1
    12    9   12 1
    13    9   13 1
    14   13   14 1
    15   14   15 1
    16   14   33 1
    17   14   34 1
    18   15   16 1
    19   15   17 1
    20   15   35 1
    21   16   21 1
    22   17   18 1
    23   17   19 1
    24   17   36 1
    25   18   37 1
    26   19   20 1
    27   19   21 1
    28   19   38 1
    29   20   39 1
    30   21   22 1
    31   21   40 1
    32   22   23 ar
    33   22   31 ar
    34   23   24 ar
    35   23   41 1
    36   24   25 ar
    37   25   26 ar
    38   25   31 ar
    39   26   27 2
    40   26   28 ar
    41   27   42 1
    42   28   29 ar
    43   28   44 1
    44   29   30 ar
    45   29   43 1
    46   30   31 ar
@<TRIPOS>SUBSTRUCTURE
     1 ATP         1 GROUP 0 A     ****
@<TRIPOS>MOLECULE
[[[3,4-dihydroxy-5-(6-imino-1~{H}-purin-9-yl)tetrahydrofuran-2-yl]methoxy-oxido-phosphoryl]oxy-oxido-phosphoryl] hydrogen phosphate
   44    46     1     0     0
SMALL
USER_CHARGES

@<TRIPOS>ATOM
      1 PG          2.7001    5.8353   -2.0153 P.3       1 ATP         1.5257
      2 O1G         2.8531    5.6960   -3.5135 O.co2     1 ATP        -0.8737
      3 O2G         3.7624    5.3135   -1.0736 O.co2     1 ATP        -0.8737
      4 O3G         2.4241    7.4063   -1.6660 O.3       1 ATP        -0.7971
      5 PB          0.7098    3.6866   -1.6084 P.3       1 ATP         1.6824
      6 O1B         0.5853    3.2522   -3.0517 O.co2     1 ATP        -0.8925
      7 O2B         1.4982    2.8693   -0.6095 O.co2     1 ATP        -0.8925
      8 O3B         1.2529    5.2258   -1.5701 O.3       1 ATP        -0.8047
      9 PA         -1.9976    2.8867   -0.7222 P.3       1 ATP         1.5908
     10 O1A        -2.2806    2.1154   -1.9932 O.co2     1 ATP        -0.8932
     11 O2A        -3.1068    3.6179    0.0021 O.co2     1 ATP        -0.8932
     12 O3A        -0.7864    3.9453   -1.0089 O.3       1 ATP        -0.8088
     13 O5'        -1.2434    1.9104    0.3515 O.3       1 ATP        -0.5646
     14 C5'        -0.8811    2.4285    1.6206 C.3       1 ATP         0.2204
     15 C4'        -0.1994    1.3333    2.4288 C.3       1 ATP         0.0965
     16 O4'        -1.1285    0.2356    2.5840 O.3       1 ATP        -0.3907
     17 C3'         1.0324    0.7610    1.7344 C.3       1 ATP         0.0763
     18 O3'         1.9175    0.2377    2.7247 O.3       1 ATP        -0.5884
     19 C2'         0.4468   -0.3802    0.9263 C.3       1 ATP         0.0784
     20 O2'         1.3993   -1.3703    0.5961 O.3       1 ATP        -0.6085
     21 C1'        -0.6159   -0.9100    1.8769 C.3       1 ATP         0.2186
     22 N9         -1.7127   -1.6108    1.2130 N.pl3     1 ATP        -0.1699
     23 C8         -2.8662   -1.0361    0.7388 C.ar      1 ATP         0.4438
     24 N7         -3.6774   -1.9166    0.1867 N.2       1 ATP        -0.6280
     25 C5         -3.0159   -3.1045    0.3122 C.ar      1 ATP         0.2109
     26 C6         -3.4377   -4.4169   -0.1199 C.ar      1 ATP         0.6180
     27 N6         -4.5720   -4.5691   -0.7080 N.2       1 ATP        -0.8319
     28 N1         -2.4600   -5.3463    0.2071 N.pl3     1 ATP        -0.8664
     29 C2         -1.2595   -5.0554    0.8515 C.ar      1 ATP         0.5952
     30 N3         -0.8555   -3.8803    1.2516 N.2       1 ATP        -0.5599
     31 C4         -1.7946   -2.9457    0.9448 C.ar      1 ATP         0.0076
     32 HOG3        2.3020    7.6612   -0.7267 H         1 ATP         0.4101
     33 H5'1       -0.2033    3.2760    1.4769 H         1 ATP         0.0364
     34 H5'2       -1.7841    2.7762    2.1323 H         1 ATP         0.0364
     35 H4'         0.0403    1.7078    3.4343 H         1 ATP         0.0945
     36 H3'         1.5907    1.4859    1.1353 H         1 ATP         0.0703
     37 HO3'        2.6839   -0.1150    2.2479 H         1 ATP         0.4099
     38 H2'        -0.0017    0.0018    0.0005 H         1 ATP         0.0676
     39 HO2'        2.0953   -0.9375    0.0709 H         1 ATP         0.4291
     40 H1'        -0.1998   -1.6319    2.6178 H         1 ATP         0.0950
     41 H8         -3.0558    0.0252    0.8256 H         1 ATP         0.1135
     42 HN62       -4.7047   -5.5592   -0.9421 H         1 ATP         0.3588
     43 H2         -0.6372   -5.9505    1.0077 H         1 ATP         0.0302
     44 H44        -2.6338   -6.3155   -0.0469 H         1 ATP         0.4215
@<TRIPOS>BOND
     1    1    2 2
     2    1    3 1
     3    1    4 1
     4    1    8 1
     5    4   32 1
     6    5    6 2
     7    5    7 1
     8    5    8 1
     9    5   12 1
    10    9   10 2
    11    9   11 1
    12    9   12 1
    13    9   13 1
    14   13   14 1
    15   14   15 1
    16   14   33 1
    17   14   34 1
    18   15   16 1
    19   15   17 1
    20   15   35 1
    21   16   21 1
    22   17   18 1
    23   17   19 1
    24   17   36 1
    25   18   37 1
    26   19   20 1
    27   19   21 1
    28   19   38 1
    29   20   39 1
    30   21   22 1
    31   21   40 1
    32   22   23 ar
    33   22   31 ar
    34   23   24 ar
    35   23   41 1
    36   24   25 ar
    37   25   26 ar
    38   25   31 ar
    39   26   27 2
    40   26   28 ar
    41   27   42 1
    42   28   29 ar
    43   28   44 1
    44   29   30 ar
    45   29   43 1
    46   30   31 ar
@<TRIPOS>SUBSTRUCTURE
     1 ATP         1 GROUP 0 A     ****
@<TRIPOS>MOLECULE
[[[3,4-dihydroxy-5-(6-imino-1~{H}-purin-9-yl)tetrahydrofuran-2-yl]methoxy-oxido-phosphoryl]oxy-oxido-phosphoryl] hydrogen phosphate
   44    46     1     0     0
SMALL
USER_CHARGES

@<TRIPOS>ATOM
      1 PG         -6.0801    3.4123   -1.8823 P.3       1 ATP         1.5257
      2 O1G        -5.2756    4.0264   -3.0062 O.co2     1 ATP        -0.8737
      3 O2G        -7.3438    4.0739   -1.3794 O.co2     1 ATP        -0.8737
      4 O3G        -6.4262    1.8662   -2.2769 O.3       1 ATP        -0.7971
      5 PB         -5.3881    2.3486    0.7885 P.3       1 ATP         1.6824
      6 O1B        -6.3838    3.1565    1.5906 O.co2     1 ATP        -0.8925
      7 O2B        -5.6263    0.8852    0.4897 O.co2     1 ATP        -0.8925
      8 O3B        -5.0915    3.1280   -0.6152 O.3       1 ATP        -0.8047
      9 PA         -3.0798    3.8627    1.8536 P.3       1 ATP         1.5908
     10 O1A        -3.8220    4.5968    2.9492 O.co2     1 ATP        -0.8932
     11 O2A        -2.6995    4.5681    0.5701 O.co2     1 ATP        -0.8932
     12 O3A        -3.9133    2.5109    1.4692 O.3       1 ATP        -0.8088
     13 O5'        -1.7336    3.1724    2.4750 O.3       1 ATP        -0.5646
     14 C5'        -0.8811    2.4285    1.6206 C.3       1 ATP         0.2204
     15 C4'        -0.1994    1.3333    2.4288 C.3       1 ATP         0.0965
     16 O4'        -1.1285    0.2356    2.5840 O.3       1 ATP        -0.3907
     17 C3'         1.0324    0.7610    1.7344 C.3       1 ATP         0.0763
     18 O3'         1.9175    0.2377    2.7247 O.3       1 ATP        -0.5884
     19 C2'         0.4468   -0.3802    0.9263 C.3       1 ATP         0.0784
     20 O2'         1.3993   -1.3703    0.5961 O.3       1 ATP        -0.6085
     21 C1'        -0.6159   -0.9100    1.8769 C.3       1 ATP         0.2186
     22 N9         -1.7127   -1.6108    1.2130 N.pl3     1 ATP        -0.1699
     23 C8         -2.0868   -2.9137    1.4327 C.ar      1 ATP         0.4438
     24 N7         -3.1125   -3.2756    0.6878 N.2       1 ATP        -0.6280
     25 C5         -3.4079   -2.1580   -0.0391 C.ar      1 ATP         0.2109
     26 C6         -4.4483   -1.9775   -1.0249 C.ar      1 ATP         0.6180
     27 N6         -5.2418   -2.9492   -1.3113 N.2       1 ATP        -0.8319
     28 N1         -4.3937   -0.6823   -1.5211 N.pl3     1 ATP        -0.8664
     29 C2         -3.4770    0.2901   -1.1271 C.ar      1 ATP         0.5952
     30 N3         -2.5289    0.1525   -0.2402 N.2       1 ATP        -0.5599
     31 C4         -2.5564   -1.1096    0.2655 C.ar      1 ATP         0.0076
     32 HOG3       -6.9479    1.3283   -1.6438 H         1 ATP         0.4101
     33 H5'1       -1.4800    1.9927    0.8146 H         1 ATP         0.0364
     34 H5'2       -0.1367    3.1040    1.1872 H         1 ATP         0.0364
     35 H4'         0.0403    1.7078    3.4343 H         1 ATP         0.0945
     36 H3'         1.5907    1.4859    1.1353 H         1 ATP         0.0703
     37 HO3'        2.6839   -0.1150    2.2479 H         1 ATP         0.4099
     38 H2'        -0.0017    0.0018    0.0005 H         1 ATP         0.0676
     39 HO2'        2.0953   -0.9375    0.0709 H         1 ATP         0.4291
     40 H1'        -0.1998   -1.6319    2.6178 H         1 ATP         0.0950
     41 H8         -1.5740   -3.5449    2.1457 H         1 ATP         0.1135
     42 HN62       -5.9117   -2.6433   -2.0256 H         1 ATP         0.3588
     43 H2         -3.6225    1.2454   -1.6553 H         1 ATP         0.0302
     44 H44        -5.0794   -0.4231   -2.2258 H         1 ATP         0.4215
@<TRIPOS>BOND
     1    1    2 2
     2    1    3 1
     3    1    4 1
     4    1    8 1
     5    4   32 1
     6    5    6 2
     7    5    7 1
     8    5    8 1
     9    5   12 1
    10    9   10 2
    11    9   11 1
    12    9   12 1
    13    9   13 1
    14   13   14 1
    15   14   15 1
    16   14   33 1
    17   14   34 1
    18   15   16 1
    19   15   17 1
    20   15   35 1
    21   16   21 1
    22   17   18 1
    23   17   19 1
    24   17   36 1
    25   18   37 1
    26   19   20 1
    27   19   21 1
    28   19   38 1
    29   20   39 1
    30   21   22 1
    31   21   40 1
    32   22   23 ar
    33   22   31 ar
    34   23   24 ar
    35   23   41 1
    36   24   25 ar
    37   25   26 ar
    38   25   31 ar
    39   26   27 2
    40   26   28 ar
    41   27   42 1
    42   28   29 ar
    43   28   44 1
    44   29   30 ar
    45   29   43 1
    46   30   31 ar
@<TRIPOS>SUBSTRUCTURE
     1 ATP         1 GROUP 0 A     ****
@<TRIPOS>MOLECULE
[[[3,4-dihydroxy-5-(6-imino-1~{H}-purin-9-yl)tetrahydrofuran-2-yl]methoxy-oxido-phosphoryl]oxy-oxido-phosphoryl] hydrogen phosphate
   44    46     1     0     0
SMALL
USER_CHARGES

@<TRIPOS>ATOM
      1 PG          9.6582    0.4311    3.2313 P.3       1 ATP         1.5257
      2 O1G         9.2125   -0.4085    4.4077 O.co2     1 ATP        -0.8737
      3 O2G        10.8148    1.3973    3.3598 O.co2     1 ATP        -0.8737
      4 O3G         9.9489   -0.5603    1.9670 O.3       1 ATP        -0.7971
      5 PB          7.4666    2.4152    3.2945 P.3       1 ATP         1.6824
      6 O1B         6.7159    1.8476    4.4784 O.co2     1 ATP        -0.8925
      7 O2B         8.3221    3.6550    3.4307 O.co2     1 ATP        -0.8925
      8 O3B         8.3679    1.2280    2.6282 O.3       1 ATP        -0.8047
      9 PA          5.1608    3.6754    1.9343 P.3       1 ATP         1.5908
     10 O1A         5.6998    5.0894    1.9151 O.co2     1 ATP        -0.8932
     11 O2A         4.0982    3.2661    2.9309 O.co2     1 ATP        -0.8932
     12 O3A         6.4153    2.6368    2.0655 O.3       1 ATP        -0.8088
     13 O5'         4.6405    3.2699    0.4378 O.3       1 ATP        -0.5646
     14 C5'         4.0922    1.9801    0.2227 C.3       1 ATP         0.2204
     15 C4'         2.5944    2.0310    0.4653 C.3       1 ATP         0.0965
     16 O4'         1.9327    2.5740   -0.6889 O.3       1 ATP        -0.3907
     17 C3'         1.9685    0.6634    0.6767 C.3       1 ATP         0.0763
     18 O3'         2.1425    0.1975    1.9977 O.3       1 ATP        -0.5884
     19 C2'         0.5176    0.9128    0.3099 C.3       1 ATP         0.0784
     20 O2'        -0.2103    1.4454    1.4152 O.3       1 ATP        -0.6085
     21 C1'         0.6219    1.9765   -0.7844 C.3       1 ATP         0.2186
     22 N9          0.4237    1.4496   -2.1357 N.pl3     1 ATP        -0.1699
     23 C8          1.4069    0.9710   -2.9662 C.ar      1 ATP         0.4438
     24 N7          0.9316    0.5623   -4.1260 N.2       1 ATP        -0.6280
     25 C5         -0.4120    0.7884   -4.0344 C.ar      1 ATP         0.2109
     26 C6         -1.4353    0.5283   -5.0204 C.ar      1 ATP         0.6180
     27 N6         -1.1199    0.0176   -6.1586 N.2       1 ATP        -0.8319
     28 N1         -2.6704    0.9095   -4.5147 N.pl3     1 ATP        -0.8664
     29 C2         -2.8863    1.4571   -3.2520 C.ar      1 ATP         0.5952
     30 N3         -1.9805    1.7017   -2.3442 N.2       1 ATP        -0.5599
     31 C4         -0.7561    1.3381   -2.8112 C.ar      1 ATP         0.0076
     32 HOG3       10.2487   -0.1632    1.1216 H         1 ATP         0.4101
     33 H5'1        4.3028    1.6728   -0.8066 H         1 ATP         0.0364
     34 H5'2        4.5677    1.2738    0.9106 H         1 ATP         0.0364
     35 H4'         2.3752    2.7029    1.3156 H         1 ATP         0.0945
     36 H3'         2.4336   -0.1217   -0.0015 H         1 ATP         0.0703
     37 HO3'        3.0987    0.1465    2.1461 H         1 ATP         0.4099
     38 H2'         0.0316    0.0155   -0.0339 H         1 ATP         0.0676
     39 HO2'       -1.1270    1.5823    1.1180 H         1 ATP         0.4291
     40 H1'        -0.1474    2.7798   -0.6651 H         1 ATP         0.0950
     41 H8          2.4466    0.9468   -2.6694 H         1 ATP         0.1135
     42 HN62       -1.9661   -0.0965   -6.7275 H         1 ATP         0.3588
     43 H2         -3.9481    1.6825   -3.0660 H         1 ATP         0.0302
     44 H44        -3.4814    0.7753   -5.1133 H         1 ATP         0.4215
@<TRIPOS>BOND
     1    1    2 2
     2    1    3 1
     3    1    4 1
     4    1    8 1
     5    4   32 1
     6    5    6 2
     7    5    7 1
     8    5    8 1
     9    5   12 1
    10    9   10 2
    11    9   11 1
    12    9   12 1
    13    9   13 1
    14   13   14 1
    15   14   15 1
    16   14   33 1
    17   14   34 1
    18   15   16 1
    19   15   17 1
    20   15   35 1
    21   16   21 1
    22   17   18 1
    23   17   19 1
    24   17   36 1
    25   18   37 1
    26   19   20 1
    27   19   21 1
    28   19   38 1
    29   20   39 1
    30   21   22 1
    31   21   40 1
    32   22   23 ar
    33   22   31 ar
    34   23   24 ar
    35   23   41 1
    36   24   25 ar
    37   25   26 ar
    38   25   31 ar
    39   26   27 2
    40   26   28 ar
    41   27   42 1
    42   28   29 ar
    43   28   44 1
    44   29   30 ar
    45   29   43 1
    46   30   31 ar
@<TRIPOS>SUBSTRUCTURE
     1 ATP         1 GROUP 0 A     ****
@<TRIPOS>MOLECULE
[[[3,4-dihydroxy-5-(6-imino-1~{H}-purin-9-yl)tetrahydrofuran-2-yl]methoxy-oxido-phosphoryl]oxy-oxido-phosphoryl] hydrogen phosphate
   44    46     1     0     0
SMALL
USER_CHARGES

@<TRIPOS>ATOM
      1 PG         -0.1816    7.6043   -3.1403 P.3       1 ATP         1.5257
      2 O1G        -1.4383    8.4418   -3.2217 O.co2     1 ATP        -0.8737
      3 O2G         0.4253    6.9907   -4.3824 O.co2     1 ATP        -0.8737
      4 O3G         0.9707    8.4711   -2.3743 O.3       1 ATP        -0.7971
      5 PB         -1.4007    5.1489   -2.0320 P.3       1 ATP         1.6824
      6 O1B        -2.8262    5.6485   -1.9572 O.co2     1 ATP        -0.8925
      7 O2B        -0.9604    4.1968   -3.1216 O.co2     1 ATP        -0.8925
      8 O3B        -0.3943    6.4345   -2.0222 O.3       1 ATP        -0.8047
      9 PA          0.4528    3.9705   -0.0493 P.3       1 ATP         1.5908
     10 O1A         1.4111    5.1388    0.0343 O.co2     1 ATP        -0.8932
     11 O2A         0.8144    2.7281   -0.8338 O.co2     1 ATP        -0.8932
     12 O3A        -0.9922    4.5136   -0.5848 O.3       1 ATP        -0.8088
     13 O5'         0.0178    3.5131    1.4595 O.3       1 ATP        -0.5646
     14 C5'        -0.8811    2.4285    1.6206 C.3       1 ATP         0.2204
     15 C4'        -0.1994    1.3333    2.4288 C.3       1 ATP         0.0965
     16 O4'        -1.1285    0.2356    2.5840 O.3       1 ATP        -0.3907
     17 C3'         1.0324    0.7610    1.7344 C.3       1 ATP         0.0763
     18 O3'         1.9175    0.2377    2.7247 O.3       1 ATP        -0.5884
     19 C2'         0.4468   -0.3802    0.9263 C.3       1 ATP         0.0784
     20 O2'         1.3993   -1.3703    0.5961 O.3       1 ATP        -0.6085
     21 C1'        -0.6159   -0.9100    1.8769 C.3       1 ATP         0.2186
     22 N9         -1.7127   -1.6108    1.2130 N.pl3     1 ATP        -0.1699
     23 C8         -3.0370   -1.2489    1.2455 C.ar      1 ATP         0.4438
     24 N7         -3.8008   -2.0709    0.5534 N.2       1 ATP        -0.6280
     25 C5         -2.9295   -2.9976    0.0567 C.ar      1 ATP         0.2109
     26 C6         -3.2152   -4.1411   -0.7786 C.ar      1 ATP         0.6180
     27 N6         -4.4238   -4.3865   -1.1456 N.2       1 ATP        -0.8319
     28 N1         -2.0349   -4.8186   -1.0521 N.pl3     1 ATP        -0.8664
     29 C2         -0.7728   -4.4501   -0.5916 C.ar      1 ATP         0.5952
     30 N3         -0.4885   -3.4234    0.1630 N.2       1 ATP        -0.5599
     31 C4         -1.6274   -2.7377    0.4492 C.ar      1 ATP         0.0076
     32 HOG3        1.8522    8.0617   -2.2419 H         1 ATP         0.4101
     33 H5'1       -1.7771    2.7849    2.1387 H         1 ATP         0.0364
     34 H5'2       -1.1654    2.0541    0.6320 H         1 ATP         0.0364
     35 H4'         0.0403    1.7078    3.4343 H         1 ATP         0.0945
     36 H3'         1.5907    1.4859    1.1353 H         1 ATP         0.0703
     37 HO3'        2.6839   -0.1150    2.2479 H         1 ATP         0.4099
     38 H2'        -0.0017    0.0018    0.0005 H         1 ATP         0.0676
     39 HO2'        2.0953   -0.9375    0.0709 H         1 ATP         0.4291
     40 H1'        -0.1998   -1.6319    2.6178 H         1 ATP         0.0950
     41 H8         -3.3806   -0.3795    1.7893 H         1 ATP         0.1135
     42 HN62       -4.4384   -5.2300   -1.7295 H         1 ATP         0.3588
     43 H2          0.0180   -5.1355   -0.9348 H         1 ATP         0.0302
     44 H44        -2.0977   -5.6477   -1.6374 H         1 ATP         0.4215
@<TRIPOS>BOND
     1    1    2 2
     2    1    3 1
     3    1    4 1
     4    1    8 1
     5    4   32 1
     6    5    6 2
     7    5    7 1
     8    5    8 1
     9    5   12 1
    10    9   10 2
    11    9   11 1
    12    9   12 1
    13    9   13 1
    14   13   14 1
    15   14   15 1
    16   14   33 1
    17   14   34 1
    18   15   16 1
    19   15   17 1
    20   15   35 1
    21   16   21 1
    22   17   18 1
    23   17   19 1
    24   17   36 1
    25   18   37 1
    26   19   20 1
    27   19   21 1
    28   19   38 1
    29   20   39 1
    30   21   22 1
    31   21   40 1
    32   22   23 ar
    33   22   31 ar
    34   23   24 ar
    35   23   41 1
    36   24   25 ar
    37   25   26 ar
    38   25   31 ar
    39   26   27 2
    40   26   28 ar
    41   27   42 1
    42   28   29 ar
    43   28   44 1
    44   29   30 ar
    45   29   43 1
    46   30   31 ar
@<TRIPOS>SUBSTRUCTURE
     1 ATP         1 GROUP 0 A     ****
@<TRIPOS>MOLECULE
[[[3,4-dihydroxy-5-(6-imino-1~{H}-purin-9-yl)tetrahydrofuran-2-yl]methoxy-oxido-phosphoryl]oxy-oxido-phosphoryl] hydrogen phosphate
   44    46     1     0     0
SMALL
USER_CHARGES

@<TRIPOS>ATOM
      1 PG         10.1791   -1.4274    1.3558 P.3       1 ATP         1.5257
      2 O1G        10.1331   -2.7203    0.5724 O.co2     1 ATP        -0.8737
      3 O2G        10.4640   -1.4284    2.8412 O.co2     1 ATP        -0.8737
      4 O3G        11.2333   -0.4162    0.6264 O.3       1 ATP        -0.7971
      5 PB          8.1158   -0.1453   -0.3302 P.3       1 ATP         1.6824
      6 O1B         9.0114    0.8672   -1.0086 O.co2     1 ATP        -0.8925
      7 O2B         7.6484   -1.3877   -1.0551 O.co2     1 ATP        -0.8925
      8 O3B         8.8048   -0.5908    1.0813 O.3       1 ATP        -0.8047
      9 PA          5.6073    0.0705    1.2242 P.3       1 ATP         1.5908
     10 O1A         6.1850   -0.3040    2.5719 O.co2     1 ATP        -0.8932
     11 O2A         4.7962   -0.9269    0.4261 O.co2     1 ATP        -0.8932
     12 O3A         6.8124    0.6304    0.2735 O.3       1 ATP        -0.8088
     13 O5'         4.7294    1.4427    1.3696 O.3       1 ATP        -0.5646
     14 C5'         4.0922    1.9801    0.2227 C.3       1 ATP         0.2204
     15 C4'         2.5944    2.0310    0.4653 C.3       1 ATP         0.0965
     16 O4'         1.9327    2.5740   -0.6889 O.3       1 ATP        -0.3907
     17 C3'         1.9685    0.6634    0.6767 C.3       1 ATP         0.0763
     18 O3'         2.1425    0.1975    1.9977 O.3       1 ATP        -0.5884
     19 C2'         0.5176    0.9128    0.3099 C.3       1 ATP         0.0784
     20 O2'        -0.2103    1.4454    1.4152 O.3       1 ATP        -0.6085
     21 C1'         0.6219    1.9765   -0.7844 C.3       1 ATP         0.2186
     22 N9          0.4237    1.4496   -2.1357 N.pl3     1 ATP        -0.1699
     23 C8          1.4069    0.9710   -2.9662 C.ar      1 ATP         0.4438
     24 N7          0.9316    0.5623   -4.1260 N.2       1 ATP        -0.6280
     25 C5         -0.4120    0.7884   -4.0344 C.ar      1 ATP         0.2109
     26 C6         -1.4353    0.5283   -5.0204 C.ar      1 ATP         0.6180
     27 N6         -1.1199    0.0176   -6.1586 N.2       1 ATP        -0.8319
     28 N1         -2.6704    0.9095   -4.5147 N.pl3     1 ATP        -0.8664
     29 C2         -2.8863    1.4571   -3.2520 C.ar      1 ATP         0.5952
     30 N3         -1.9805    1.7017   -2.3442 N.2       1 ATP        -0.5599
     31 C4         -0.7561    1.3381   -2.8112 C.ar      1 ATP         0.0076
     32 HOG3       11.3758    0.4717    1.0182 H         1 ATP         0.4101
     33 H5'1        4.4843    2.9854    0.0380 H         1 ATP         0.0364
     34 H5'2        4.3191    1.3446   -0.6392 H         1 ATP         0.0364
     35 H4'         2.3752    2.7029    1.3156 H         1 ATP         0.0945
     36 H3'         2.4336   -0.1217   -0.0015 H         1 ATP         0.0703
     37 HO3'        1.7160   -0.6716    2.0397 H         1 ATP         0.4099
     38 H2'         0.0316    0.0155   -0.0339 H         1 ATP         0.0676
     39 HO2'       -0.1608    0.7921    2.1351 H         1 ATP         0.4291
     40 H1'        -0.1474    2.7798   -0.6651 H         1 ATP         0.0950
     41 H8          2.4466    0.9468   -2.6694 H         1 ATP         0.1135
     42 HN62       -1.9661   -0.0965   -6.7275 H         1 ATP         0.3588
     43 H2         -3.9481    1.6825   -3.0660 H         1 ATP         0.0302
     44 H44        -3.4814    0.7753   -5.1133 H         1 ATP         0.4215
@<TRIPOS>BOND
     1    1    2 2
     2    1    3 1
     3    1    4 1
     4    1    8 1
     5    4   32 1
     6    5    6 2
     7    5    7 1
     8    5    8 1
     9    5   12 1
    10    9   10 2
    11    9   11 1
    12    9   12 1
    13    9   13 1
    14   13   14 1
    15   14   15 1
    16   14   33 1
    17   14   34 1
    18   15   16 1
    19   15   17 1
    20   15   35 1
    21   16   21 1
    22   17   18 1
    23   17   19 1
    24   17   36 1
    25   18   37 1
    26   19   20 1
    27   19   21 1
    28   19   38 1
    29   20   39 1
    30   21   22 1
    31   21   40 1
    32   22   23 ar
    33   22   31 ar
    34   23   24 ar
    35   23   41 1
    36   24   25 ar
    37   25   26 ar
    38   25   31 ar
    39   26   27 2
    40   26   28 ar
    41   27   42 1
    42   28   29 ar
    43   28   44 1
    44   29   30 ar
    45   29   43 1
    46   30   31 ar
@<TRIPOS>SUBSTRUCTURE
     1 ATP         1 GROUP 0 A     ****
@<TRIPOS>MOLECULE
[[[3,4-dihydroxy-5-(6-imino-1~{H}-purin-9-yl)tetrahydrofuran-2-yl]methoxy-oxido-phosphoryl]oxy-oxido-phosphoryl] hydrogen phosphate
   44    46     1     0     0
SMALL
USER_CHARGES

@<TRIPOS>ATOM
      1 PG          2.4423    7.6792    2.9062 P.3       1 ATP         1.5257
      2 O1G         2.8069    8.4174    1.6375 O.co2     1 ATP        -0.8737
      3 O2G         3.4933    6.9416    3.7056 O.co2     1 ATP        -0.8737
      4 O3G         1.6640    8.7127    3.9022 O.3       1 ATP        -0.7971
      5 PB         -0.2454    6.9591    1.9056 P.3       1 ATP         1.6824
      6 O1B        -1.0487    7.8424    2.8341 O.co2     1 ATP        -0.8925
      7 O2B        -0.0284    7.3374    0.4574 O.co2     1 ATP        -0.8925
      8 O3B         1.2058    6.6614    2.5919 O.3       1 ATP        -0.8047
      9 PA         -1.1369    4.4808    3.2540 P.3       1 ATP         1.5908
     10 O1A        -2.2259    5.1046    4.0997 O.co2     1 ATP        -0.8932
     11 O2A         0.1944    4.1006    3.8646 O.co2     1 ATP        -0.8932
     12 O3A        -0.8543    5.4457    1.9661 O.3       1 ATP        -0.8088
     13 O5'        -1.7336    3.1724    2.4750 O.3       1 ATP        -0.5646
     14 C5'        -0.8811    2.4285    1.6206 C.3       1 ATP         0.2204
     15 C4'        -0.1994    1.3333    2.4288 C.3       1 ATP         0.0965
     16 O4'        -1.1285    0.2356    2.5840 O.3       1 ATP        -0.3907
     17 C3'         1.0324    0.7610    1.7344 C.3       1 ATP         0.0763
     18 O3'         1.9175    0.2377    2.7247 O.3       1 ATP        -0.5884
     19 C2'         0.4468   -0.3802    0.9263 C.3       1 ATP         0.0784
     20 O2'         1.3993   -1.3703    0.5961 O.3       1 ATP        -0.6085
     21 C1'        -0.6159   -0.9100    1.8769 C.3       1 ATP         0.2186
     22 N9         -1.7127   -1.6108    1.2130 N.pl3     1 ATP        -0.1699
     23 C8         -3.0370   -1.2489    1.2455 C.ar      1 ATP         0.4438
     24 N7         -3.8008   -2.0709    0.5534 N.2       1 ATP        -0.6280
     25 C5         -2.9295   -2.9976    0.0567 C.ar      1 ATP         0.2109
     26 C6         -3.2152   -4.1411   -0.7786 C.ar      1 ATP         0.6180
     27 N6         -4.4238   -4.3865   -1.1456 N.2       1 ATP        -0.8319
     28 N1         -2.0349   -4.8186   -1.0521 N.pl3     1 ATP        -0.8664
     29 C2         -0.7728   -4.4501   -0.5916 C.ar      1 ATP         0.5952
     30 N3         -0.4885   -3.4234    0.1630 N.2       1 ATP        -0.5599
     31 C4         -1.6274   -2.7377    0.4492 C.ar      1 ATP         0.0076
     32 HOG3        1.3599    8.3812    4.7739 H         1 ATP         0.4101
     33 H5'1       -1.4800    1.9927    0.8146 H         1 ATP         0.0364
     34 H5'2       -0.1367    3.1040    1.1872 H         1 ATP         0.0364
     35 H4'         0.0403    1.7078    3.4343 H         1 ATP         0.0945
     36 H3'         1.5907    1.4859    1.1353 H         1 ATP         0.0703
     37 HO3'        2.6839   -0.1150    2.2479 H         1 ATP         0.4099
     38 H2'        -0.0017    0.0018    0.0005 H         1 ATP         0.0676
     39 HO2'        2.0953   -0.9375    0.0709 H         1 ATP         0.4291
     40 H1'        -0.1998   -1.6319    2.6178 H         1 ATP         0.0950
     41 H8         -3.3806   -0.3795    1.7893 H         1 ATP         0.1135
     42 HN62       -4.4384   -5.2300   -1.7295 H         1 ATP         0.3588
     43 H2          0.0180   -5.1355   -0.9348 H         1 ATP         0.0302
     44 H44        -2.0977   -5.6477   -1.6374 H         1 ATP         0.4215
@<TRIPOS>BOND
     1    1    2 2
     2    1    3 1
     3    1    4 1
     4    1    8 1
     5    4   32 1
     6    5    6 2
     7    5    7 1
     8    5    8 1
     9    5   12 1
    10    9   10 2
    11    9   11 1
    12    9   12 1
    13    9   13 1
    14   13   14 1
    15   14   15 1
    16   14   33 1
    17   14   34 1
    18   15   16 1
    19   15   17 1
    20   15   35 1
    21   16   21 1
    22   17   18 1
    23   17   19 1
    24   17   36 1
    25   18   37 1
    26   19   20 1
    27   19   21 1
    28   19   38 1
    29   20   39 1
    30   21   22 1
    31   21   40 1
    32   22   23 ar
    33   22   31 ar
    34   23   24 ar
    35   23   41 1
    36   24   25 ar
    37   25   26 ar
    38   25   31 ar
    39   26   27 2
    40   26   28 ar
    41   27   42 1
    42   28   29 ar
    43   28   44 1
    44   29   30 ar
    45   29   43 1
    46   30   31 ar
@<TRIPOS>SUBSTRUCTURE
     1 ATP         1 GROUP 0 A     ****
@<TRIPOS>MOLECULE
[[[3,4-dihydroxy-5-(6-imino-1~{H}-purin-9-yl)tetrahydrofuran-2-yl]methoxy-oxido-phosphoryl]oxy-oxido-phosphoryl] hydrogen phosphate
   44    46     1     0     0
SMALL
USER_CHARGES

@<TRIPOS>ATOM
      1 PG         -1.2052    9.1270   -0.8046 P.3       1 ATP         1.5257
      2 O1G        -1.1848    9.1862   -2.3157 O.co2     1 ATP        -0.8737
      3 O2G        -0.2464    9.9579    0.0188 O.co2     1 ATP        -0.8737
      4 O3G        -2.7258    9.4321   -0.2940 O.3       1 ATP        -0.7971
      5 PB         -1.9950    6.2777   -0.7667 P.3       1 ATP         1.6824
      6 O1B        -3.3989    6.4655   -0.2364 O.co2     1 ATP        -0.8925
      7 O2B        -1.7428    5.9801   -2.2280 O.co2     1 ATP        -0.8925
      8 O3B        -1.0945    7.5686   -0.3325 O.3       1 ATP        -0.8047
      9 PA         -1.0483    5.0551    1.7560 P.3       1 ATP         1.5908
     10 O1A        -2.4056    4.8672    2.3983 O.co2     1 ATP        -0.8932
     11 O2A        -0.1366    6.1823    2.1897 O.co2     1 ATP        -0.8932
     12 O3A        -1.2417    5.1453    0.1361 O.3       1 ATP        -0.8088
     13 O5'        -0.2062    3.6557    1.8417 O.3       1 ATP        -0.5646
     14 C5'        -0.8811    2.4285    1.6206 C.3       1 ATP         0.2204
     15 C4'        -0.1994    1.3333    2.4288 C.3       1 ATP         0.0965
     16 O4'        -1.1285    0.2356    2.5840 O.3       1 ATP        -0.3907
     17 C3'         1.0324    0.7610    1.7344 C.3       1 ATP         0.0763
     18 O3'         1.9175    0.2377    2.7247 O.3       1 ATP        -0.5884
     19 C2'         0.4468   -0.3802    0.9263 C.3       1 ATP         0.0784
     20 O2'         1.3993   -1.3703    0.5961 O.3       1 ATP        -0.6085
     21 C1'        -0.6159   -0.9100    1.8769 C.3       1 ATP         0.2186
     22 N9         -1.7127   -1.6108    1.2130 N.pl3     1 ATP        -0.1699
     23 C8         -2.8662   -1.0361    0.7388 C.ar      1 ATP         0.4438
     24 N7         -3.6774   -1.9166    0.1867 N.2       1 ATP        -0.6280
     25 C5         -3.0159   -3.1045    0.3122 C.ar      1 ATP         0.2109
     26 C6         -3.4377   -4.4169   -0.1199 C.ar      1 ATP         0.6180
     27 N6         -4.5720   -4.5691   -0.7080 N.2       1 ATP        -0.8319
     28 N1         -2.4600   -5.3463    0.2071 N.pl3     1 ATP        -0.8664
     29 C2         -1.2595   -5.0554    0.8515 C.ar      1 ATP         0.5952
     30 N3         -0.8555   -3.8803    1.2516 N.2       1 ATP        -0.5599
     31 C4         -1.7946   -2.9457    0.9448 C.ar      1 ATP         0.0076
     32 HOG3       -3.4458    8.8342   -0.5880 H         1 ATP         0.4101
     33 H5'1       -1.9256    2.5380    1.9293 H         1 ATP         0.0364
     34 H5'2       -0.8474    2.1930    0.5521 H         1 ATP         0.0364
     35 H4'         0.0403    1.7078    3.4343 H         1 ATP         0.0945
     36 H3'         1.5907    1.4859    1.1353 H         1 ATP         0.0703
     37 HO3'        2.6839   -0.1150    2.2479 H         1 ATP         0.4099
     38 H2'        -0.0017    0.0018    0.0005 H         1 ATP         0.0676
     39 HO2'        1.7495   -1.7243    1.4324 H         1 ATP         0.4291
     40 H1'        -0.1998   -1.6319    2.6178 H         1 ATP         0.0950
     41 H8         -3.0558    0.0252    0.8256 H         1 ATP         0.1135
     42 HN62       -4.7047   -5.5592   -0.9421 H         1 ATP         0.3588
     43 H2         -0.6372   -5.9505    1.0077 H         1 ATP         0.0302
     44 H44        -2.6338   -6.3155   -0.0469 H         1 ATP         0.4215
@<TRIPOS>BOND
     1    1    2 2
     2    1    3 1
     3    1    4 1
     4    1    8 1
     5    4   32 1
     6    5    6 2
     7    5    7 1
     8    5    8 1
     9    5   12 1
    10    9   10 2
    11    9   11 1
    12    9   12 1
    13    9   13 1
    14   13   14 1
    15   14   15 1
    16   14   33 1
    17   14   34 1
    18   15   16 1
    19   15   17 1
    20   15   35 1
    21   16   21 1
    22   17   18 1
    23   17   19 1
    24   17   36 1
    25   18   37 1
    26   19   20 1
    27   19   21 1
    28   19   38 1
    29   20   39 1
    30   21   22 1
    31   21   40 1
    32   22   23 ar
    33   22   31 ar
    34   23   24 ar
    35   23   41 1
    36   24   25 ar
    37   25   26 ar
    38   25   31 ar
    39   26   27 2
    40   26   28 ar
    41   27   42 1
    42   28   29 ar
    43   28   44 1
    44   29   30 ar
    45   29   43 1
    46   30   31 ar
@<TRIPOS>SUBSTRUCTURE
     1 ATP         1 GROUP 0 A     ****
@<TRIPOS>MOLECULE
[[[3,4-dihydroxy-5-(6-imino-1~{H}-purin-9-yl)tetrahydrofuran-2-yl]methoxy-oxido-phosphoryl]oxy-oxido-phosphoryl] hydrogen phosphate
   44    46     1     0     0
SMALL
USER_CHARGES

@<TRIPOS>ATOM
      1 PG          0.1511    8.4607   -0.6107 P.3       1 ATP         1.5257
      2 O1G        -0.2533    8.2216   -2.0483 O.co2     1 ATP        -0.8737
      3 O2G         1.5721    8.8374   -0.2554 O.co2     1 ATP        -0.8737
      4 O3G        -0.8565    9.5724    0.0335 O.3       1 ATP        -0.7971
      5 PB         -0.2454    6.9591    1.9056 P.3       1 ATP         1.6824
      6 O1B         1.2013    6.9175    2.3448 O.co2     1 ATP        -0.8925
      7 O2B        -1.2329    7.9057    2.5508 O.co2     1 ATP        -0.8925
      8 O3B        -0.2953    7.1733    0.2878 O.3       1 ATP        -0.8047
      9 PA         -1.1369    4.4808    3.2540 P.3       1 ATP         1.5908
     10 O1A        -2.2259    5.1046    4.0997 O.co2     1 ATP        -0.8932
     11 O2A         0.1944    4.1006    3.8646 O.co2     1 ATP        -0.8932
     12 O3A        -0.8543    5.4457    1.9661 O.3       1 ATP        -0.8088
     13 O5'        -1.7336    3.1724    2.4750 O.3       1 ATP        -0.5646
     14 C5'        -0.8811    2.4285    1.6206 C.3       1 ATP         0.2204
     15 C4'        -0.1994    1.3333    2.4288 C.3       1 ATP         0.0965
     16 O4'        -1.1285    0.2356    2.5840 O.3       1 ATP        -0.3907
     17 C3'         1.0324    0.7610    1.7344 C.3       1 ATP         0.0763
     18 O3'         1.9175    0.2377    2.7247 O.3       1 ATP        -0.5884
     19 C2'         0.4468   -0.3802    0.9263 C.3       1 ATP         0.0784
     20 O2'         1.3993   -1.3703    0.5961 O.3       1 ATP        -0.6085
     21 C1'        -0.6159   -0.9100    1.8769 C.3       1 ATP         0.2186
     22 N9         -1.7127   -1.6108    1.2130 N.pl3     1 ATP        -0.1699
     23 C8         -3.0370   -1.2489    1.2455 C.ar      1 ATP         0.4438
     24 N7         -3.8008   -2.0709    0.5534 N.2       1 ATP        -0.6280
     25 C5         -2.9295   -2.9976    0.0567 C.ar      1 ATP         0.2109
     26 C6         -3.2152   -4.1411   -0.7786 C.ar      1 ATP         0.6180
     27 N6         -4.4238   -4.3865   -1.1456 N.2       1 ATP        -0.8319
     28 N1         -2.0349   -4.8186   -1.0521 N.pl3     1 ATP        -0.8664
     29 C2         -0.7728   -4.4501   -0.5916 C.ar      1 ATP         0.5952
     30 N3         -0.4885   -3.4234    0.1630 N.2       1 ATP        -0.5599
     31 C4         -1.6274   -2.7377    0.4492 C.ar      1 ATP         0.0076
     32 HOG3       -0.7230    9.8373    0.9685 H         1 ATP         0.4101
     33 H5'1       -1.4800    1.9927    0.8146 H         1 ATP         0.0364
     34 H5'2       -0.1367    3.1040    1.1872 H         1 ATP         0.0364
     35 H4'         0.0403    1.7078    3.4343 H         1 ATP         0.0945
     36 H3'         1.5907    1.4859    1.1353 H         1 ATP         0.0703
     37 HO3'        2.1521    0.9800    3.3017 H         1 ATP         0.4099
     38 H2'        -0.0017    0.0018    0.0005 H         1 ATP         0.0676
     39 HO2'        2.0953   -0.9375    0.0709 H         1 ATP         0.4291
     40 H1'        -0.1998   -1.6319    2.6178 H         1 ATP         0.0950
     41 H8         -3.3806   -0.3795    1.7893 H         1 ATP         0.1135
     42 HN62       -4.4384   -5.2300   -1.7295 H         1 ATP         0.3588
     43 H2          0.0180   -5.1355   -0.9348 H         1 ATP         0.0302
     44 H44        -2.0977   -5.6477   -1.6374 H         1 ATP         0.4215
@<TRIPOS>BOND
     1    1    2 2
     2    1    3 1
     3    1    4 1
     4    1    8 1
     5    4   32 1
     6    5    6 2
     7    5    7 1
     8    5    8 1
     9    5   12 1
    10    9   10 2
    11    9   11 1
    12    9   12 1
    13    9   13 1
    14   13   14 1
    15   14   15 1
    16   14   33 1
    17   14   34 1
    18   15   16 1
    19   15   17 1
    20   15   35 1
    21   16   21 1
    22   17   18 1
    23   17   19 1
    24   17   36 1
    25   18   37 1
    26   19   20 1
    27   19   21 1
    28   19   38 1
    29   20   39 1
    30   21   22 1
    31   21   40 1
    32   22   23 ar
    33   22   31 ar
    34   23   24 ar
    35   23   41 1
    36   24   25 ar
    37   25   26 ar
    38   25   31 ar
    39   26   27 2
    40   26   28 ar
    41   27   42 1
    42   28   29 ar
    43   28   44 1
    44   29   30 ar
    45   29   43 1
    46   30   31 ar
@<TRIPOS>SUBSTRUCTURE
     1 ATP         1 GROUP 0 A     ****
@<TRIPOS>MOLECULE
[[[3,4-dihydroxy-5-(6-imino-1~{H}-purin-9-yl)tetrahydrofuran-2-yl]methoxy-oxido-phosphoryl]oxy-oxido-phosphoryl] hydrogen phosphate
   44    46     1     0     0
SMALL
USER_CHARGES

@<TRIPOS>ATOM
      1 PG         -3.6173    1.7205   -2.0434 P.3       1 ATP         1.5257
      2 O1G        -3.9906    0.2643   -2.2086 O.co2     1 ATP        -0.8737
      3 O2G        -2.2556    2.1193   -1.5196 O.co2     1 ATP        -0.8737
      4 O3G        -3.8706    2.4852   -3.4637 O.3       1 ATP        -0.7971
      5 PB         -5.1692    2.2616    0.4146 P.3       1 ATP         1.6824
      6 O1B        -6.1848    3.3160    0.7947 O.co2     1 ATP        -0.8925
      7 O2B        -5.4355    0.7931    0.6598 O.co2     1 ATP        -0.8925
      8 O3B        -4.7652    2.4656   -1.1540 O.3       1 ATP        -0.8047
      9 PA         -3.2890    2.7005    2.6567 P.3       1 ATP         1.5908
     10 O1A        -3.3276    1.2949    3.2163 O.co2     1 ATP        -0.8932
     11 O2A        -4.0474    3.8228    3.3313 O.co2     1 ATP        -0.8932
     12 O3A        -3.7331    2.6526    1.0850 O.3       1 ATP        -0.8088
     13 O5'        -1.7336    3.1724    2.4750 O.3       1 ATP        -0.5646
     14 C5'        -0.8811    2.4285    1.6206 C.3       1 ATP         0.2204
     15 C4'        -0.1994    1.3333    2.4288 C.3       1 ATP         0.0965
     16 O4'        -1.1285    0.2356    2.5840 O.3       1 ATP        -0.3907
     17 C3'         1.0324    0.7610    1.7344 C.3       1 ATP         0.0763
     18 O3'         1.9175    0.2377    2.7247 O.3       1 ATP        -0.5884
     19 C2'         0.4468   -0.3802    0.9263 C.3       1 ATP         0.0784
     20 O2'         1.3993   -1.3703    0.5961 O.3       1 ATP        -0.6085
     21 C1'        -0.6159   -0.9100    1.8769 C.3       1 ATP         0.2186
     22 N9         -1.7127   -1.6108    1.2130 N.pl3     1 ATP        -0.1699
     23 C8         -2.8662   -1.0361    0.7388 C.ar      1 ATP         0.4438
     24 N7         -3.6774   -1.9166    0.1867 N.2       1 ATP        -0.6280
     25 C5         -3.0159   -3.1045    0.3122 C.ar      1 ATP         0.2109
     26 C6         -3.4377   -4.4169   -0.1199 C.ar      1 ATP         0.6180
     27 N6         -4.5720   -4.5691   -0.7080 N.2       1 ATP        -0.8319
     28 N1         -2.4600   -5.3463    0.2071 N.pl3     1 ATP        -0.8664
     29 C2         -1.2595   -5.0554    0.8515 C.ar      1 ATP         0.5952
     30 N3         -0.8555   -3.8803    1.2516 N.2       1 ATP        -0.5599
     31 C4         -1.7946   -2.9457    0.9448 C.ar      1 ATP         0.0076
     32 HOG3       -3.6736    3.4446   -3.5190 H         1 ATP         0.4101
     33 H5'1       -1.4800    1.9927    0.8146 H         1 ATP         0.0364
     34 H5'2       -0.1367    3.1040    1.1872 H         1 ATP         0.0364
     35 H4'         0.0403    1.7078    3.4343 H         1 ATP         0.0945
     36 H3'         1.5907    1.4859    1.1353 H         1 ATP         0.0703
     37 HO3'        2.1521    0.9800    3.3017 H         1 ATP         0.4099
     38 H2'        -0.0017    0.0018    0.0005 H         1 ATP         0.0676
     39 HO2'        2.0953   -0.9375    0.0709 H         1 ATP         0.4291
     40 H1'        -0.1998   -1.6319    2.6178 H         1 ATP         0.0950
     41 H8         -3.0558    0.0252    0.8256 H         1 ATP         0.1135
     42 HN62       -4.7047   -5.5592   -0.9421 H         1 ATP         0.3588
     43 H2         -0.6372   -5.9505    1.0077 H         1 ATP         0.0302
     44 H44        -2.6338   -6.3155   -0.0469 H         1 ATP         0.4215
@<TRIPOS>BOND
     1    1    2 2
     2    1    3 1
     3    1    4 1
     4    1    8 1
     5    4   32 1
     6    5    6 2
     7    5    7 1
     8    5    8 1
     9    5   12 1
    10    9   10 2
    11    9   11 1
    12    9   12 1
    13    9   13 1
    14   13   14 1
    15   14   15 1
    16   14   33 1
    17   14   34 1
    18   15   16 1
    19   15   17 1
    20   15   35 1
    21   16   21 1
    22   17   18 1
    23   17   19 1
    24   17   36 1
    25   18   37 1
    26   19   20 1
    27   19   21 1
    28   19   38 1
    29   20   39 1
    30   21   22 1
    31   21   40 1
    32   22   23 ar
    33   22   31 ar
    34   23   24 ar
    35   23   41 1
    36   24   25 ar
    37   25   26 ar
    38   25   31 ar
    39   26   27 2
    40   26   28 ar
    41   27   42 1
    42   28   29 ar
    43   28   44 1
    44   29   30 ar
    45   29   43 1
    46   30   31 ar
@<TRIPOS>SUBSTRUCTURE
     1 ATP         1 GROUP 0 A     ****
@<TRIPOS>MOLECULE
[[[3,4-dihydroxy-5-(6-imino-1~{H}-purin-9-yl)tetrahydrofuran-2-yl]methoxy-oxido-phosphoryl]oxy-oxido-phosphoryl] hydrogen phosphate
   44    46     1     0     0
SMALL
USER_CHARGES

@<TRIPOS>ATOM
      1 PG         -6.0462   -1.2152    2.1807 P.3       1 ATP         1.5257
      2 O1G        -6.2229   -1.2936    0.6807 O.co2     1 ATP        -0.8737
      3 O2G        -7.2187   -0.9120    3.0867 O.co2     1 ATP        -0.8737
      4 O3G        -5.3388   -2.5950    2.6924 O.3       1 ATP        -0.7971
      5 PB         -4.1224    0.1715    3.9470 P.3       1 ATP         1.6824
      6 O1B        -5.1302    0.8686    4.8336 O.co2     1 ATP        -0.8925
      7 O2B        -3.3717   -1.0512    4.4253 O.co2     1 ATP        -0.8925
      8 O3B        -4.8337   -0.1764    2.5192 O.3       1 ATP        -0.8047
      9 PA         -3.2890    2.7005    2.6567 P.3       1 ATP         1.5908
     10 O1A        -3.9939    3.6421    3.6090 O.co2     1 ATP        -0.8932
     11 O2A        -3.8602    2.4175    1.2844 O.co2     1 ATP        -0.8932
     12 O3A        -3.0427    1.2741    3.4147 O.3       1 ATP        -0.8088
     13 O5'        -1.7336    3.1724    2.4750 O.3       1 ATP        -0.5646
     14 C5'        -0.8811    2.4285    1.6206 C.3       1 ATP         0.2204
     15 C4'        -0.1994    1.3333    2.4288 C.3       1 ATP         0.0965
     16 O4'        -1.1285    0.2356    2.5840 O.3       1 ATP        -0.3907
     17 C3'         1.0324    0.7610    1.7344 C.3       1 ATP         0.0763
     18 O3'         1.9175    0.2377    2.7247 O.3       1 ATP        -0.5884
     19 C2'         0.4468   -0.3802    0.9263 C.3       1 ATP         0.0784
     20 O2'         1.3993   -1.3703    0.5961 O.3       1 ATP        -0.6085
     21 C1'        -0.6159   -0.9100    1.8769 C.3       1 ATP         0.2186
     22 N9         -1.7127   -1.6108    1.2130 N.pl3     1 ATP        -0.1699
     23 C8         -2.5485   -1.0808    0.2609 C.ar      1 ATP         0.4438
     24 N7         -3.4476   -1.9486   -0.1593 N.2       1 ATP        -0.6280
     25 C5         -3.1762   -3.0816    0.5530 C.ar      1 ATP         0.2109
     26 C6         -3.8510   -4.3579    0.5006 C.ar      1 ATP         0.6180
     27 N6         -4.8468   -4.5293   -0.2961 N.2       1 ATP        -0.8319
     28 N1         -3.2499   -5.2342    1.3937 N.pl3     1 ATP        -0.8664
     29 C2         -2.1646   -4.9275    2.2116 C.ar      1 ATP         0.5952
     30 N3         -1.5382   -3.7840    2.2778 N.2       1 ATP        -0.5599
     31 C4         -2.1054   -2.9018    1.4120 C.ar      1 ATP         0.0076
     32 HOG3       -5.1554   -2.6982    3.6505 H         1 ATP         0.4101
     33 H5'1       -1.4800    1.9927    0.8146 H         1 ATP         0.0364
     34 H5'2       -0.1367    3.1040    1.1872 H         1 ATP         0.0364
     35 H4'         0.0403    1.7078    3.4343 H         1 ATP         0.0945
     36 H3'         1.5907    1.4859    1.1353 H         1 ATP         0.0703
     37 HO3'        2.6839   -0.1150    2.2479 H         1 ATP         0.4099
     38 H2'        -0.0017    0.0018    0.0005 H         1 ATP         0.0676
     39 HO2'        2.0953   -0.9375    0.0709 H         1 ATP         0.4291
     40 H1'        -0.1998   -1.6319    2.6178 H         1 ATP         0.0950
     41 H8         -2.4515   -0.0599   -0.0829 H         1 ATP         0.1135
     42 HN62       -5.1990   -5.4882   -0.2005 H         1 ATP         0.3588
     43 H2         -1.8555   -5.7783    2.8388 H         1 ATP         0.0302
     44 H44        -3.6312   -6.1750    1.4526 H         1 ATP         0.4215
@<TRIPOS>BOND
     1    1    2 2
     2    1    3 1
     3    1    4 1
     4    1    8 1
     5    4   32 1
     6    5    6 2
     7    5    7 1
     8    5    8 1
     9    5   12 1
    10    9   10 2
    11    9   11 1
    12    9   12 1
    13    9   13 1
    14   13   14 1
    15   14   15 1
    16   14   33 1
    17   14   34 1
    18   15   16 1
    19   15   17 1
    20   15   35 1
    21   16   21 1
    22   17   18 1
    23   17   19 1
    24   17   36 1
    25   18   37 1
    26   19   20 1
    27   19   21 1
    28   19   38 1
    29   20   39 1
    30   21   22 1
    31   21   40 1
    32   22   23 ar
    33   22   31 ar
    34   23   24 ar
    35   23   41 1
    36   24   25 ar
    37   25   26 ar
    38   25   31 ar
    39   26   27 2
    40   26   28 ar
    41   27   42 1
    42   28   29 ar
    43   28   44 1
    44   29   30 ar
    45   29   43 1
    46   30   31 ar
@<TRIPOS>SUBSTRUCTURE
     1 ATP         1 GROUP 0 A     ****
@<TRIPOS>MOLECULE
[[[3,4-dihydroxy-5-(6-imino-1~{H}-purin-9-yl)tetrahydrofuran-2-yl]methoxy-oxido-phosphoryl]oxy-oxido-phosphoryl] hydrogen phosphate
   44    46     1     0     0
SMALL
USER_CHARGES

@<TRIPOS>ATOM
      1 PG         -2.4844    6.2534    6.3753 P.3       1 ATP         1.5257
      2 O1G        -3.9820    6.1013    6.5220 O.co2     1 ATP        -0.8737
      3 O2G        -1.8133    7.5904    6.5985 O.co2     1 ATP        -0.8737
      4 O3G        -1.7549    5.1425    7.3238 O.3       1 ATP        -0.7971
      5 PB         -2.3607    6.2284    3.4211 P.3       1 ATP         1.6824
      6 O1B        -3.8418    6.0696    3.1594 O.co2     1 ATP        -0.8925
      7 O2B        -1.6714    7.5621    3.2378 O.co2     1 ATP        -0.8925
      8 O3B        -2.0313    5.6706    4.9197 O.3       1 ATP        -0.8047
      9 PA          0.0330    4.7083    2.5757 P.3       1 ATP         1.5908
     10 O1A         0.3797    4.1293    3.9302 O.co2     1 ATP        -0.8932
     11 O2A         0.8148    5.8736    2.0095 O.co2     1 ATP        -0.8932
     12 O3A        -1.5535    5.0992    2.5620 O.3       1 ATP        -0.8088
     13 O5'         0.0178    3.5131    1.4595 O.3       1 ATP        -0.5646
     14 C5'        -0.8811    2.4285    1.6206 C.3       1 ATP         0.2204
     15 C4'        -0.1994    1.3333    2.4288 C.3       1 ATP         0.0965
     16 O4'        -1.1285    0.2356    2.5840 O.3       1 ATP        -0.3907
     17 C3'         1.0324    0.7610    1.7344 C.3       1 ATP         0.0763
     18 O3'         1.9175    0.2377    2.7247 O.3       1 ATP        -0.5884
     19 C2'         0.4468   -0.3802    0.9263 C.3       1 ATP         0.0784
     20 O2'         1.3993   -1.3703    0.5961 O.3       1 ATP        -0.6085
     21 C1'        -0.6159   -0.9100    1.8769 C.3       1 ATP         0.2186
     22 N9         -1.7127   -1.6108    1.2130 N.pl3     1 ATP        -0.1699
     23 C8         -2.0868   -2.9137    1.4327 C.ar      1 ATP         0.4438
     24 N7         -3.1125   -3.2756    0.6878 N.2       1 ATP        -0.6280
     25 C5         -3.4079   -2.1580   -0.0391 C.ar      1 ATP         0.2109
     26 C6         -4.4483   -1.9775   -1.0249 C.ar      1 ATP         0.6180
     27 N6         -5.2418   -2.9492   -1.3113 N.2       1 ATP        -0.8319
     28 N1         -4.3937   -0.6823   -1.5211 N.pl3     1 ATP        -0.8664
     29 C2         -3.4770    0.2901   -1.1271 C.ar      1 ATP         0.5952
     30 N3         -2.5289    0.1525   -0.2402 N.2       1 ATP        -0.5599
     31 C4         -2.5564   -1.1096    0.2655 C.ar      1 ATP         0.0076
     32 HOG3       -0.7745    5.1129    7.3389 H         1 ATP         0.4101
     33 H5'1       -1.7771    2.7849    2.1387 H         1 ATP         0.0364
     34 H5'2       -1.1654    2.0541    0.6320 H         1 ATP         0.0364
     35 H4'         0.0403    1.7078    3.4343 H         1 ATP         0.0945
     36 H3'         1.5907    1.4859    1.1353 H         1 ATP         0.0703
     37 HO3'        2.1521    0.9800    3.3017 H         1 ATP         0.4099
     38 H2'        -0.0017    0.0018    0.0005 H         1 ATP         0.0676
     39 HO2'        0.9369   -2.0558    0.0825 H         1 ATP         0.4291
     40 H1'        -0.1998   -1.6319    2.6178 H         1 ATP         0.0950
     41 H8         -1.5740   -3.5449    2.1457 H         1 ATP         0.1135
     42 HN62       -5.9117   -2.6433   -2.0256 H         1 ATP         0.3588
     43 H2         -3.6225    1.2454   -1.6553 H         1 ATP         0.0302
     44 H44        -5.0794   -0.4231   -2.2258 H         1 ATP         0.4215
@<TRIPOS>BOND
     1    1    2 2
     2    1    3 1
     3    1    4 1
     4    1    8 1
     5    4   32 1
     6    5    6 2
     7    5    7 1
     8    5    8 1
     9    5   12 1
    10    9   10 2
    11    9   11 1
    12    9   12 1
    13    9   13 1
    14   13   14 1
    15   14   15 1
    16   14   33 1
    17   14   34 1
    18   15   16 1
    19   15   17 1
    20   15   35 1
    21   16   21 1
    22   17   18 1
    23   17   19 1
    24   17   36 1
    25   18   37 1
    26   19   20 1
    27   19   21 1
    28   19   38 1
    29   20   39 1
    30   21   22 1
    31   21   40 1
    32   22   23 ar
    33   22   31 ar
    34   23   24 ar
    35   23   41 1
    36   24   25 ar
    37   25   26 ar
    38   25   31 ar
    39   26   27 2
    40   26   28 ar
    41   27   42 1
    42   28   29 ar
    43   28   44 1
    44   29   30 ar
    45   29   43 1
    46   30   31 ar
@<TRIPOS>SUBSTRUCTURE
     1 ATP         1 GROUP 0 A     ****
@<TRIPOS>MOLECULE
[[[3,4-dihydroxy-5-(6-imino-1~{H}-purin-9-yl)tetrahydrofuran-2-yl]methoxy-oxido-phosphoryl]oxy-oxido-phosphoryl] hydrogen phosphate
   44    46     1     0     0
SMALL
USER_CHARGES

@<TRIPOS>ATOM
      1 PG          9.7429    1.8338    3.4600 P.3       1 ATP         1.5257
      2 O1G        10.7204    2.9863    3.5203 O.co2     1 ATP        -0.8737
      3 O2G        10.1707    0.4780    2.9436 O.co2     1 ATP        -0.8737
      4 O3G         9.0784    1.6393    4.9387 O.3       1 ATP        -0.7971
      5 PB          7.4426    3.6043    2.8966 P.3       1 ATP         1.6824
      6 O1B         6.7275    3.4311    4.2180 O.co2     1 ATP        -0.8925
      7 O2B         8.2267    4.8604    2.5889 O.co2     1 ATP        -0.8925
      8 O3B         8.4083    2.3110    2.6507 O.3       1 ATP        -0.8047
      9 PA          5.0664    4.2077    1.2399 P.3       1 ATP         1.5908
     10 O1A         5.5244    5.5584    0.7338 O.co2     1 ATP        -0.8932
     11 O2A         4.0307    4.1037    2.3381 O.co2     1 ATP        -0.8932
     12 O3A         6.3780    3.3420    1.6872 O.3       1 ATP        -0.8088
     13 O5'         4.5670    3.2937   -0.0211 O.3       1 ATP        -0.5646
     14 C5'         4.0922    1.9801    0.2227 C.3       1 ATP         0.2204
     15 C4'         2.5944    2.0310    0.4653 C.3       1 ATP         0.0965
     16 O4'         1.9327    2.5740   -0.6889 O.3       1 ATP        -0.3907
     17 C3'         1.9685    0.6634    0.6767 C.3       1 ATP         0.0763
     18 O3'         2.1425    0.1975    1.9977 O.3       1 ATP        -0.5884
     19 C2'         0.5176    0.9128    0.3099 C.3       1 ATP         0.0784
     20 O2'        -0.2103    1.4454    1.4152 O.3       1 ATP        -0.6085
     21 C1'         0.6219    1.9765   -0.7844 C.3       1 ATP         0.2186
     22 N9          0.4237    1.4496   -2.1357 N.pl3     1 ATP        -0.1699
     23 C8          1.4069    0.9710   -2.9662 C.ar      1 ATP         0.4438
     24 N7          0.9316    0.5623   -4.1260 N.2       1 ATP        -0.6280
     25 C5         -0.4120    0.7884   -4.0344 C.ar      1 ATP         0.2109
     26 C6         -1.4353    0.5283   -5.0204 C.ar      1 ATP         0.6180
     27 N6         -1.1199    0.0176   -6.1586 N.2       1 ATP        -0.8319
     28 N1         -2.6704    0.9095   -4.5147 N.pl3     1 ATP        -0.8664
     29 C2         -2.8863    1.4571   -3.2520 C.ar      1 ATP         0.5952
     30 N3         -1.9805    1.7017   -2.3442 N.2       1 ATP        -0.5599
     31 C4         -0.7561    1.3381   -2.8112 C.ar      1 ATP         0.0076
     32 HOG3        8.4180    0.9247    5.0634 H         1 ATP         0.4101
     33 H5'1        4.3179    1.3548   -0.6470 H         1 ATP         0.0364
     34 H5'2        4.6083    1.5737    1.0983 H         1 ATP         0.0364
     35 H4'         2.3752    2.7029    1.3156 H         1 ATP         0.0945
     36 H3'         2.4336   -0.1217   -0.0015 H         1 ATP         0.0703
     37 HO3'        3.0987    0.1465    2.1461 H         1 ATP         0.4099
     38 H2'         0.0316    0.0155   -0.0339 H         1 ATP         0.0676
     39 HO2'       -0.1608    0.7921    2.1351 H         1 ATP         0.4291
     40 H1'        -0.1474    2.7798   -0.6651 H         1 ATP         0.0950
     41 H8          2.4466    0.9468   -2.6694 H         1 ATP         0.1135
     42 HN62       -1.9661   -0.0965   -6.7275 H         1 ATP         0.3588
     43 H2         -3.9481    1.6825   -3.0660 H         1 ATP         0.0302
     44 H44        -3.4814    0.7753   -5.1133 H         1 ATP         0.4215
@<TRIPOS>BOND
     1    1    2 2
     2    1    3 1
     3    1    4 1
     4    1    8 1
     5    4   32 1
     6    5    6 2
     7    5    7 1
     8    5    8 1
     9    5   12 1
    10    9   10 2
    11    9   11 1
    12    9   12 1
    13    9   13 1
    14   13   14 1
    15   14   15 1
    16   14   33 1
    17   14   34 1
    18   15   16 1
    19   15   17 1
    20   15   35 1
    21   16   21 1
    22   17   18 1
    23   17   19 1
    24   17   36 1
    25   18   37 1
    26   19   20 1
    27   19   21 1
    28   19   38 1
    29   20   39 1
    30   21   22 1
    31   21   40 1
    32   22   23 ar
    33   22   31 ar
    34   23   24 ar
    35   23   41 1
    36   24   25 ar
    37   25   26 ar
    38   25   31 ar
    39   26   27 2
    40   26   28 ar
    41   27   42 1
    42   28   29 ar
    43   28   44 1
    44   29   30 ar
    45   29   43 1
    46   30   31 ar
@<TRIPOS>SUBSTRUCTURE
     1 ATP         1 GROUP 0 A     ****
@<TRIPOS>MOLECULE
[[[3,4-dihydroxy-5-(6-imino-1~{H}-purin-9-yl)tetrahydrofuran-2-yl]methoxy-oxido-phosphoryl]oxy-oxido-phosphoryl] hydrogen phosphate
   44    46     1     0     0
SMALL
USER_CHARGES

@<TRIPOS>ATOM
      1 PG          0.6187    4.7998    4.9572 P.3       1 ATP         1.5257
      2 O1G         0.7256    6.2776    4.6537 O.co2     1 ATP        -0.8737
      3 O2G         0.6212    4.2971    6.3837 O.co2     1 ATP        -0.8737
      4 O3G        -0.7029    4.2095    4.2018 O.3       1 ATP        -0.7971
      5 PB          3.3892    4.0397    4.2570 P.3       1 ATP         1.6824
      6 O1B         3.8784    5.4128    3.8535 O.co2     1 ATP        -0.8925
      7 O2B         3.7728    3.4312    5.5875 O.co2     1 ATP        -0.8925
      8 O3B         1.7634    3.9999    4.1125 O.3       1 ATP        -0.8047
      9 PA          5.2202    2.4549    2.5568 P.3       1 ATP         1.5908
     10 O1A         5.8669    1.6548    3.6666 O.co2     1 ATP        -0.8932
     11 O2A         5.9473    3.6171    1.9161 O.co2     1 ATP        -0.8932
     12 O3A         3.7615    2.9821    3.0706 O.3       1 ATP        -0.8088
     13 O5'         4.7294    1.4427    1.3696 O.3       1 ATP        -0.5646
     14 C5'         4.0922    1.9801    0.2227 C.3       1 ATP         0.2204
     15 C4'         2.5944    2.0310    0.4653 C.3       1 ATP         0.0965
     16 O4'         1.9327    2.5740   -0.6889 O.3       1 ATP        -0.3907
     17 C3'         1.9685    0.6634    0.6767 C.3       1 ATP         0.0763
     18 O3'         2.1425    0.1975    1.9977 O.3       1 ATP        -0.5884
     19 C2'         0.5176    0.9128    0.3099 C.3       1 ATP         0.0784
     20 O2'        -0.2103    1.4454    1.4152 O.3       1 ATP        -0.6085
     21 C1'         0.6219    1.9765   -0.7844 C.3       1 ATP         0.2186
     22 N9          0.4237    1.4496   -2.1357 N.pl3     1 ATP        -0.1699
     23 C8          1.4069    0.9710   -2.9662 C.ar      1 ATP         0.4438
     24 N7          0.9316    0.5623   -4.1260 N.2       1 ATP        -0.6280
     25 C5         -0.4120    0.7884   -4.0344 C.ar      1 ATP         0.2109
     26 C6         -1.4353    0.5283   -5.0204 C.ar      1 ATP         0.6180
     27 N6         -1.1199    0.0176   -6.1586 N.2       1 ATP        -0.8319
     28 N1         -2.6704    0.9095   -4.5147 N.pl3     1 ATP        -0.8664
     29 C2         -2.8863    1.4571   -3.2520 C.ar      1 ATP         0.5952
     30 N3         -1.9805    1.7017   -2.3442 N.2       1 ATP        -0.5599
     31 C4         -0.7561    1.3381   -2.8112 C.ar      1 ATP         0.0076
     32 HOG3       -0.9112    3.2562    4.3021 H         1 ATP         0.4101
     33 H5'1        4.4843    2.9854    0.0380 H         1 ATP         0.0364
     34 H5'2        4.3191    1.3446   -0.6392 H         1 ATP         0.0364
     35 H4'         2.3752    2.7029    1.3156 H         1 ATP         0.0945
     36 H3'         2.4336   -0.1217   -0.0015 H         1 ATP         0.0703
     37 HO3'        3.0987    0.1465    2.1461 H         1 ATP         0.4099
     38 H2'         0.0316    0.0155   -0.0339 H         1 ATP         0.0676
     39 HO2'       -0.1608    0.7921    2.1351 H         1 ATP         0.4291
     40 H1'        -0.1474    2.7798   -0.6651 H         1 ATP         0.0950
     41 H8          2.4466    0.9468   -2.6694 H         1 ATP         0.1135
     42 HN62       -1.9661   -0.0965   -6.7275 H         1 ATP         0.3588
     43 H2         -3.9481    1.6825   -3.0660 H         1 ATP         0.0302
     44 H44        -3.4814    0.7753   -5.1133 H         1 ATP         0.4215
@<TRIPOS>BOND
     1    1    2 2
     2    1    3 1
     3    1    4 1
     4    1    8 1
     5    4   32 1
     6    5    6 2
     7    5    7 1
     8    5    8 1
     9    5   12 1
    10    9   10 2
    11    9   11 1
    12    9   12 1
    13    9   13 1
    14   13   14 1
    15   14   15 1
    16   14   33 1
    17   14   34 1
    18   15   16 1
    19   15   17 1
    20   15   35 1
    21   16   21 1
    22   17   18 1
    23   17   19 1
    24   17   36 1
    25   18   37 1
    26   19   20 1
    27   19   21 1
    28   19   38 1
    29   20   39 1
    30   21   22 1
    31   21   40 1
    32   22   23 ar
    33   22   31 ar
    34   23   24 ar
    35   23   41 1
    36   24   25 ar
    37   25   26 ar
    38   25   31 ar
    39   26   27 2
    40   26   28 ar
    41   27   42 1
    42   28   29 ar
    43   28   44 1
    44   29   30 ar
    45   29   43 1
    46   30   31 ar
@<TRIPOS>SUBSTRUCTURE
     1 ATP         1 GROUP 0 A     ****
@<TRIPOS>MOLECULE
[[[3,4-dihydroxy-5-(6-imino-1~{H}-purin-9-yl)tetrahydrofuran-2-yl]methoxy-oxido-phosphoryl]oxy-oxido-phosphoryl] hydrogen phosphate
   44    46     1     0     0
SMALL
USER_CHARGES

@<TRIPOS>ATOM
      1 PG          9.2496    4.5389    4.3214 P.3       1 ATP         1.5257
      2 O1G         8.8603    4.2838    5.7604 O.co2     1 ATP        -0.8737
      3 O2G         9.5997    5.9315    3.8461 O.co2     1 ATP        -0.8737
      4 O3G        10.4753    3.5340    3.9297 O.3       1 ATP        -0.7971
      5 PB          7.4666    2.4152    3.2945 P.3       1 ATP         1.6824
      6 O1B         8.5413    1.4505    2.8453 O.co2     1 ATP        -0.8925
      7 O2B         6.6833    2.1783    4.5665 O.co2     1 ATP        -0.8925
      8 O3B         8.1001    3.9192    3.3424 O.3       1 ATP        -0.8047
      9 PA          5.1608    3.6754    1.9343 P.3       1 ATP         1.5908
     10 O1A         5.6998    5.0894    1.9151 O.co2     1 ATP        -0.8932
     11 O2A         4.0982    3.2661    2.9309 O.co2     1 ATP        -0.8932
     12 O3A         6.4153    2.6368    2.0655 O.3       1 ATP        -0.8088
     13 O5'         4.6405    3.2699    0.4378 O.3       1 ATP        -0.5646
     14 C5'         4.0922    1.9801    0.2227 C.3       1 ATP         0.2204
     15 C4'         2.5944    2.0310    0.4653 C.3       1 ATP         0.0965
     16 O4'         1.9327    2.5740   -0.6889 O.3       1 ATP        -0.3907
     17 C3'         1.9685    0.6634    0.6767 C.3       1 ATP         0.0763
     18 O3'         2.1425    0.1975    1.9977 O.3       1 ATP        -0.5884
     19 C2'         0.5176    0.9128    0.3099 C.3       1 ATP         0.0784
     20 O2'        -0.2103    1.4454    1.4152 O.3       1 ATP        -0.6085
     21 C1'         0.6219    1.9765   -0.7844 C.3       1 ATP         0.2186
     22 N9          0.4237    1.4496   -2.1357 N.pl3     1 ATP        -0.1699
     23 C8          1.4069    0.9710   -2.9662 C.ar      1 ATP         0.4438
     24 N7          0.9316    0.5623   -4.1260 N.2       1 ATP        -0.6280
     25 C5         -0.4120    0.7884   -4.0344 C.ar      1 ATP         0.2109
     26 C6         -1.4353    0.5283   -5.0204 C.ar      1 ATP         0.6180
     27 N6         -1.1199    0.0176   -6.1586 N.2       1 ATP        -0.8319
     28 N1         -2.6704    0.9095   -4.5147 N.pl3     1 ATP        -0.8664
     29 C2         -2.8863    1.4571   -3.2520 C.ar      1 ATP         0.5952
     30 N3         -1.9805    1.7017   -2.3442 N.2       1 ATP        -0.5599
     31 C4         -0.7561    1.3381   -2.8112 C.ar      1 ATP         0.0076
     32 HOG3       10.8430    3.5779    3.0213 H         1 ATP         0.4101
     33 H5'1        4.3028    1.6728   -0.8066 H         1 ATP         0.0364
     34 H5'2        4.5677    1.2738    0.9106 H         1 ATP         0.0364
     35 H4'         2.3752    2.7029    1.3156 H         1 ATP         0.0945
     36 H3'         2.4336   -0.1217   -0.0015 H         1 ATP         0.0703
     37 HO3'        1.7160   -0.6716    2.0397 H         1 ATP         0.4099
     38 H2'         0.0316    0.0155   -0.0339 H         1 ATP         0.0676
     39 HO2'       -0.1608    0.7921    2.1351 H         1 ATP         0.4291
     40 H1'        -0.1474    2.7798   -0.6651 H         1 ATP         0.0950
     41 H8          2.4466    0.9468   -2.6694 H         1 ATP         0.1135
     42 HN62       -1.9661   -0.0965   -6.7275 H         1 ATP         0.3588
     43 H2         -3.9481    1.6825   -3.0660 H         1 ATP         0.0302
     44 H44        -3.4814    0.7753   -5.1133 H         1 ATP         0.4215
@<TRIPOS>BOND
     1    1    2 2
     2    1    3 1
     3    1    4 1
     4    1    8 1
     5    4   32 1
     6    5    6 2
     7    5    7 1
     8    5    8 1
     9    5   12 1
    10    9   10 2
    11    9   11 1
    12    9   12 1
    13    9   13 1
    14   13   14 1
    15   14   15 1
    16   14   33 1
    17   14   34 1
    18   15   16 1
    19   15   17 1
    20   15   35 1
    21   16   21 1
    22   17   18 1
    23   17   19 1
    24   17   36 1
    25   18   37 1
    26   19   20 1
    27   19   21 1
    28   19   38 1
    29   20   39 1
    30   21   22 1
    31   21   40 1
    32   22   23 ar
    33   22   31 ar
    34   23   24 ar
    35   23   41 1
    36   24   25 ar
    37   25   26 ar
    38   25   31 ar
    39   26   27 2
    40   26   28 ar
    41   27   42 1
    42   28   29 ar
    43   28   44 1
    44   29   30 ar
    45   29   43 1
    46   30   31 ar
@<TRIPOS>SUBSTRUCTURE
     1 ATP         1 GROUP 0 A     ****
@<TRIPOS>MOLECULE
[[[3,4-dihydroxy-5-(6-imino-1~{H}-purin-9-yl)tetrahydrofuran-2-yl]methoxy-oxido-phosphoryl]oxy-oxido-phosphoryl] hydrogen phosphate
   44    46     1     0     0
SMALL
USER_CHARGES

@<TRIPOS>ATOM
      1 PG          2.8348    6.4724    6.0685 P.3       1 ATP         1.5257
      2 O1G         1.8505    7.2048    6.9529 O.co2     1 ATP        -0.8737
      3 O2G         3.8803    7.2271    5.2779 O.co2     1 ATP        -0.8737
      4 O3G         3.5850    5.3304    6.9622 O.3       1 ATP        -0.7971
      5 PB          0.8896    4.3527    5.3854 P.3       1 ATP         1.6824
      6 O1B         1.5541    3.2206    6.1367 O.co2     1 ATP        -0.8925
      7 O2B        -0.3474    5.0331    5.9279 O.co2     1 ATP        -0.8925
      8 O3B         2.0117    5.4920    5.0560 O.3       1 ATP        -0.8047
      9 PA          0.0330    4.7083    2.5757 P.3       1 ATP         1.5908
     10 O1A         1.0662    5.7450    2.1908 O.co2     1 ATP        -0.8932
     11 O2A        -1.3984    5.1102    2.8570 O.co2     1 ATP        -0.8932
     12 O3A         0.5902    3.8621    3.8575 O.3       1 ATP        -0.8088
     13 O5'         0.0178    3.5131    1.4595 O.3       1 ATP        -0.5646
     14 C5'        -0.8811    2.4285    1.6206 C.3       1 ATP         0.2204
     15 C4'        -0.1994    1.3333    2.4288 C.3       1 ATP         0.0965
     16 O4'        -1.1285    0.2356    2.5840 O.3       1 ATP        -0.3907
     17 C3'         1.0324    0.7610    1.7344 C.3       1 ATP         0.0763
     18 O3'         1.9175    0.2377    2.7247 O.3       1 ATP        -0.5884
     19 C2'         0.4468   -0.3802    0.9263 C.3       1 ATP         0.0784
     20 O2'         1.3993   -1.3703    0.5961 O.3       1 ATP        -0.6085
     21 C1'        -0.6159   -0.9100    1.8769 C.3       1 ATP         0.2186
     22 N9         -1.7127   -1.6108    1.2130 N.pl3     1 ATP        -0.1699
     23 C8         -1.7690   -2.9583    0.9549 C.ar      1 ATP         0.4438
     24 N7         -2.8827   -3.3076    0.3418 N.2       1 ATP        -0.6280
     25 C5         -3.5683   -2.1351    0.2017 C.ar      1 ATP         0.2109
     26 C6         -4.8617   -1.9185   -0.4044 C.ar      1 ATP         0.6180
     27 N6         -5.5166   -2.9094   -0.8993 N.2       1 ATP        -0.8319
     28 N1         -5.1837   -0.5701   -0.3344 N.pl3     1 ATP        -0.8664
     29 C2         -4.3821    0.4180    0.2330 C.ar      1 ATP         0.5952
     30 N3         -3.2117    0.2488    0.7860 N.2       1 ATP        -0.5599
     31 C4         -2.8672   -1.0657    0.7327 C.ar      1 ATP         0.0076
     32 HOG3        4.2589    4.7654    6.5275 H         1 ATP         0.4101
     33 H5'1       -1.7771    2.7849    2.1387 H         1 ATP         0.0364
     34 H5'2       -1.1654    2.0541    0.6320 H         1 ATP         0.0364
     35 H4'         0.0403    1.7078    3.4343 H         1 ATP         0.0945
     36 H3'         1.5907    1.4859    1.1353 H         1 ATP         0.0703
     37 HO3'        2.6839   -0.1150    2.2479 H         1 ATP         0.4099
     38 H2'        -0.0017    0.0018    0.0005 H         1 ATP         0.0676
     39 HO2'        2.0953   -0.9375    0.0709 H         1 ATP         0.4291
     40 H1'        -0.1998   -1.6319    2.6178 H         1 ATP         0.0950
     41 H8         -0.9697   -3.6300    1.2371 H         1 ATP         0.1135
     42 HN62       -6.4060   -2.5723   -1.2840 H         1 ATP         0.3588
     43 H2         -4.8409    1.4176    0.1757 H         1 ATP         0.0302
     44 H44        -6.0768   -0.2826   -0.7263 H         1 ATP         0.4215
@<TRIPOS>BOND
     1    1    2 2
     2    1    3 1
     3    1    4 1
     4    1    8 1
     5    4   32 1
     6    5    6 2
     7    5    7 1
     8    5    8 1
     9    5   12 1
    10    9   10 2
    11    9   11 1
    12    9   12 1
    13    9   13 1
    14   13   14 1
    15   14   15 1
    16   14   33 1
    17   14   34 1
    18   15   16 1
    19   15   17 1
    20   15   35 1
    21   16   21 1
    22   17   18 1
    23   17   19 1
    24   17   36 1
    25   18   37 1
    26   19   20 1
    27   19   21 1
    28   19   38 1
    29   20   39 1
    30   21   22 1
    31   21   40 1
    32   22   23 ar
    33   22   31 ar
    34   23   24 ar
    35   23   41 1
    36   24   25 ar
    37   25   26 ar
    38   25   31 ar
    39   26   27 2
    40   26   28 ar
    41   27   42 1
    42   28   29 ar
    43   28   44 1
    44   29   30 ar
    45   29   43 1
    46   30   31 ar
@<TRIPOS>SUBSTRUCTURE
     1 ATP         1 GROUP 0 A     ****
@<TRIPOS>MOLECULE
[[[3,4-dihydroxy-5-(6-imino-1~{H}-purin-9-yl)tetrahydrofuran-2-yl]methoxy-oxido-phosphoryl]oxy-oxido-phosphoryl] hydrogen phosphate
   44    46     1     0     0
SMALL
USER_CHARGES

@<TRIPOS>ATOM
      1 PG         -0.1525    8.4060   -2.0785 P.3       1 ATP         1.5257
      2 O1G         0.5522    8.0616   -3.3716 O.co2     1 ATP        -0.8737
      3 O2G         0.3878    9.4802   -1.1610 O.co2     1 ATP        -0.8737
      4 O3G        -1.7136    8.7476   -2.4137 O.3       1 ATP        -0.7971
      5 PB         -1.0761    5.6290   -1.6551 P.3       1 ATP         1.6824
      6 O1B        -2.5507    5.8698   -1.8898 O.co2     1 ATP        -0.8925
      7 O2B        -0.2132    4.9680   -2.7068 O.co2     1 ATP        -0.8925
      8 O3B        -0.3789    7.0387   -1.2165 O.3       1 ATP        -0.8047
      9 PA          0.4655    4.4361    0.5710 P.3       1 ATP         1.5908
     10 O1A         1.1233    5.7111    1.0526 O.co2     1 ATP        -0.8932
     11 O2A         1.2411    3.4267   -0.2470 O.co2     1 ATP        -0.8932
     12 O3A        -0.8949    4.8235   -0.2469 O.3       1 ATP        -0.8088
     13 O5'        -0.2062    3.6557    1.8417 O.3       1 ATP        -0.5646
     14 C5'        -0.8811    2.4285    1.6206 C.3       1 ATP         0.2204
     15 C4'        -0.1994    1.3333    2.4288 C.3       1 ATP         0.0965
     16 O4'        -1.1285    0.2356    2.5840 O.3       1 ATP        -0.3907
     17 C3'         1.0324    0.7610    1.7344 C.3       1 ATP         0.0763
     18 O3'         1.9175    0.2377    2.7247 O.3       1 ATP        -0.5884
     19 C2'         0.4468   -0.3802    0.9263 C.3       1 ATP         0.0784
     20 O2'         1.3993   -1.3703    0.5961 O.3       1 ATP        -0.6085
     21 C1'        -0.6159   -0.9100    1.8769 C.3       1 ATP         0.2186
     22 N9         -1.7127   -1.6108    1.2130 N.pl3     1 ATP        -0.1699
     23 C8         -1.7690   -2.9583    0.9549 C.ar      1 ATP         0.4438
     24 N7         -2.8827   -3.3076    0.3418 N.2       1 ATP        -0.6280
     25 C5         -3.5683   -2.1351    0.2017 C.ar      1 ATP         0.2109
     26 C6         -4.8617   -1.9185   -0.4044 C.ar      1 ATP         0.6180
     27 N6         -5.5166   -2.9094   -0.8993 N.2       1 ATP        -0.8319
     28 N1         -5.1837   -0.5701   -0.3344 N.pl3     1 ATP        -0.8664
     29 C2         -4.3821    0.4180    0.2330 C.ar      1 ATP         0.5952
     30 N3         -3.2117    0.2488    0.7860 N.2       1 ATP        -0.5599
     31 C4         -2.8672   -1.0657    0.7327 C.ar      1 ATP         0.0076
     32 HOG3       -2.3076    8.9920   -1.6723 H         1 ATP         0.4101
     33 H5'1       -1.9256    2.5380    1.9293 H         1 ATP         0.0364
     34 H5'2       -0.8474    2.1930    0.5521 H         1 ATP         0.0364
     35 H4'         0.0403    1.7078    3.4343 H         1 ATP         0.0945
     36 H3'         1.5907    1.4859    1.1353 H         1 ATP         0.0703
     37 HO3'        2.1521    0.9800    3.3017 H         1 ATP         0.4099
     38 H2'        -0.0017    0.0018    0.0005 H         1 ATP         0.0676
     39 HO2'        0.9369   -2.0558    0.0825 H         1 ATP         0.4291
     40 H1'        -0.1998   -1.6319    2.6178 H         1 ATP         0.0950
     41 H8         -0.9697   -3.6300    1.2371 H         1 ATP         0.1135
     42 HN62       -6.4060   -2.5723   -1.2840 H         1 ATP         0.3588
     43 H2         -4.8409    1.4176    0.1757 H         1 ATP         0.0302
     44 H44        -6.0768   -0.2826   -0.7263 H         1 ATP         0.4215
@<TRIPOS>BOND
     1    1    2 2
     2    1    3 1
     3    1    4 1
     4    1    8 1
     5    4   32 1
     6    5    6 2
     7    5    7 1
     8    5    8 1
     9    5   12 1
    10    9   10 2
    11    9   11 1
    12    9   12 1
    13    9   13 1
    14   13   14 1
    15   14   15 1
    16   14   33 1
    17   14   34 1
    18   15   16 1
    19   15   17 1
    20   15   35 1
    21   16   21 1
    22   17   18 1
    23   17   19 1
    24   17   36 1
    25   18   37 1
    26   19   20 1
    27   19   21 1
    28   19   38 1
    29   20   39 1
    30   21   22 1
    31   21   40 1
    32   22   23 ar
    33   22   31 ar
    34   23   24 ar
    35   23   41 1
    36   24   25 ar
    37   25   26 ar
    38   25   31 ar
    39   26   27 2
    40   26   28 ar
    41   27   42 1
    42   28   29 ar
    43   28   44 1
    44   29   30 ar
    45   29   43 1
    46   30   31 ar
@<TRIPOS>SUBSTRUCTURE
     1 ATP         1 GROUP 0 A     ****
@<TRIPOS>MOLECULE
[[[3,4-dihydroxy-5-(6-imino-1~{H}-purin-9-yl)tetrahydrofuran-2-yl]methoxy-oxido-phosphoryl]oxy-oxido-phosphoryl] hydrogen phosphate
   44    46     1     0     0
SMALL
USER_CHARGES

@<TRIPOS>ATOM
      1 PG         -3.1581    4.5312    5.3584 P.3       1 ATP         1.5257
      2 O1G        -2.8420    3.1850    5.9709 O.co2     1 ATP        -0.8737
      3 O2G        -3.9277    4.6332    4.0604 O.co2     1 ATP        -0.8737
      4 O3G        -3.9106    5.4478    6.4807 O.3       1 ATP        -0.7971
      5 PB         -0.4699    5.1288    4.2813 P.3       1 ATP         1.6824
      6 O1B         0.4642    6.3115    4.4085 O.co2     1 ATP        -0.8925
      7 O2B         0.0189    3.7162    4.5121 O.co2     1 ATP        -0.8925
      8 O3B        -1.7772    5.3908    5.2236 O.3       1 ATP        -0.8047
      9 PA         -0.5790    5.0299    1.3261 P.3       1 ATP         1.5908
     10 O1A         0.5634    6.0092    1.1642 O.co2     1 ATP        -0.8932
     11 O2A        -1.7210    5.0027    0.3337 O.co2     1 ATP        -0.8932
     12 O3A        -1.2057    5.1972    2.8258 O.3       1 ATP        -0.8088
     13 O5'         0.0178    3.5131    1.4595 O.3       1 ATP        -0.5646
     14 C5'        -0.8811    2.4285    1.6206 C.3       1 ATP         0.2204
     15 C4'        -0.1994    1.3333    2.4288 C.3       1 ATP         0.0965
     16 O4'        -1.1285    0.2356    2.5840 O.3       1 ATP        -0.3907
     17 C3'         1.0324    0.7610    1.7344 C.3       1 ATP         0.0763
     18 O3'         1.9175    0.2377    2.7247 O.3       1 ATP        -0.5884
     19 C2'         0.4468   -0.3802    0.9263 C.3       1 ATP         0.0784
     20 O2'         1.3993   -1.3703    0.5961 O.3       1 ATP        -0.6085
     21 C1'        -0.6159   -0.9100    1.8769 C.3       1 ATP         0.2186
     22 N9         -1.7127   -1.6108    1.2130 N.pl3     1 ATP        -0.1699
     23 C8         -2.0868   -2.9137    1.4327 C.ar      1 ATP         0.4438
     24 N7         -3.1125   -3.2756    0.6878 N.2       1 ATP        -0.6280
     25 C5         -3.4079   -2.1580   -0.0391 C.ar      1 ATP         0.2109
     26 C6         -4.4483   -1.9775   -1.0249 C.ar      1 ATP         0.6180
     27 N6         -5.2418   -2.9492   -1.3113 N.2       1 ATP        -0.8319
     28 N1         -4.3937   -0.6823   -1.5211 N.pl3     1 ATP        -0.8664
     29 C2         -3.4770    0.2901   -1.1271 C.ar      1 ATP         0.5952
     30 N3         -2.5289    0.1525   -0.2402 N.2       1 ATP        -0.5599
     31 C4         -2.5564   -1.1096    0.2655 C.ar      1 ATP         0.0076
     32 HOG3       -4.1827    6.3575    6.2345 H         1 ATP         0.4101
     33 H5'1       -1.7771    2.7849    2.1387 H         1 ATP         0.0364
     34 H5'2       -1.1654    2.0541    0.6320 H         1 ATP         0.0364
     35 H4'         0.0403    1.7078    3.4343 H         1 ATP         0.0945
     36 H3'         1.5907    1.4859    1.1353 H         1 ATP         0.0703
     37 HO3'        2.1521    0.9800    3.3017 H         1 ATP         0.4099
     38 H2'        -0.0017    0.0018    0.0005 H         1 ATP         0.0676
     39 HO2'        1.7495   -1.7243    1.4324 H         1 ATP         0.4291
     40 H1'        -0.1998   -1.6319    2.6178 H         1 ATP         0.0950
     41 H8         -1.5740   -3.5449    2.1457 H         1 ATP         0.1135
     42 HN62       -5.9117   -2.6433   -2.0256 H         1 ATP         0.3588
     43 H2         -3.6225    1.2454   -1.6553 H         1 ATP         0.0302
     44 H44        -5.0794   -0.4231   -2.2258 H         1 ATP         0.4215
@<TRIPOS>BOND
     1    1    2 2
     2    1    3 1
     3    1    4 1
     4    1    8 1
     5    4   32 1
     6    5    6 2
     7    5    7 1
     8    5    8 1
     9    5   12 1
    10    9   10 2
    11    9   11 1
    12    9   12 1
    13    9   13 1
    14   13   14 1
    15   14   15 1
    16   14   33 1
    17   14   34 1
    18   15   16 1
    19   15   17 1
    20   15   35 1
    21   16   21 1
    22   17   18 1
    23   17   19 1
    24   17   36 1
    25   18   37 1
    26   19   20 1
    27   19   21 1
    28   19   38 1
    29   20   39 1
    30   21   22 1
    31   21   40 1
    32   22   23 ar
    33   22   31 ar
    34   23   24 ar
    35   23   41 1
    36   24   25 ar
    37   25   26 ar
    38   25   31 ar
    39   26   27 2
    40   26   28 ar
    41   27   42 1
    42   28   29 ar
    43   28   44 1
    44   29   30 ar
    45   29   43 1
    46   30   31 ar
@<TRIPOS>SUBSTRUCTURE
     1 ATP         1 GROUP 0 A     ****
@<TRIPOS>MOLECULE
[[[3,4-dihydroxy-5-(6-imino-1~{H}-purin-9-yl)tetrahydrofuran-2-yl]methoxy-oxido-phosphoryl]oxy-oxido-phosphoryl] hydrogen phosphate
   44    46     1     0     0
SMALL
USER_CHARGES

@<TRIPOS>ATOM
      1 PG          0.4876    5.9335    4.1537 P.3       1 ATP         1.5257
      2 O1G         0.8217    5.5542    5.5792 O.co2     1 ATP        -0.8737
      3 O2G        -0.8793    5.6470    3.5731 O.co2     1 ATP        -0.8737
      4 O3G         0.8158    7.5198    3.9486 O.3       1 ATP        -0.7971
      5 PB          3.2501    5.4613    3.2108 P.3       1 ATP         1.6824
      6 O1B         3.6169    6.9023    2.9340 O.co2     1 ATP        -0.8925
      7 O2B         3.7623    4.7450    4.4405 O.co2     1 ATP        -0.8925
      8 O3B         1.6248    5.3158    3.1592 O.3       1 ATP        -0.8047
      9 PA          5.0664    4.2077    1.2399 P.3       1 ATP         1.5908
     10 O1A         5.8387    3.3445    2.2139 O.co2     1 ATP        -0.8932
     11 O2A         5.6685    5.4824    0.6902 O.co2     1 ATP        -0.8932
     12 O3A         3.6130    4.5668    1.8944 O.3       1 ATP        -0.8088
     13 O5'         4.5670    3.2937   -0.0211 O.3       1 ATP        -0.5646
     14 C5'         4.0922    1.9801    0.2227 C.3       1 ATP         0.2204
     15 C4'         2.5944    2.0310    0.4653 C.3       1 ATP         0.0965
     16 O4'         1.9327    2.5740   -0.6889 O.3       1 ATP        -0.3907
     17 C3'         1.9685    0.6634    0.6767 C.3       1 ATP         0.0763
     18 O3'         2.1425    0.1975    1.9977 O.3       1 ATP        -0.5884
     19 C2'         0.5176    0.9128    0.3099 C.3       1 ATP         0.0784
     20 O2'        -0.2103    1.4454    1.4152 O.3       1 ATP        -0.6085
     21 C1'         0.6219    1.9765   -0.7844 C.3       1 ATP         0.2186
     22 N9          0.4237    1.4496   -2.1357 N.pl3     1 ATP        -0.1699
     23 C8          1.4069    0.9710   -2.9662 C.ar      1 ATP         0.4438
     24 N7          0.9316    0.5623   -4.1260 N.2       1 ATP        -0.6280
     25 C5         -0.4120    0.7884   -4.0344 C.ar      1 ATP         0.2109
     26 C6         -1.4353    0.5283   -5.0204 C.ar      1 ATP         0.6180
     27 N6         -1.1199    0.0176   -6.1586 N.2       1 ATP        -0.8319
     28 N1         -2.6704    0.9095   -4.5147 N.pl3     1 ATP        -0.8664
     29 C2         -2.8863    1.4571   -3.2520 C.ar      1 ATP         0.5952
     30 N3         -1.9805    1.7017   -2.3442 N.2       1 ATP        -0.5599
     31 C4         -0.7561    1.3381   -2.8112 C.ar      1 ATP         0.0076
     32 HOG3        0.6506    7.9208    3.0688 H         1 ATP         0.4101
     33 H5'1        4.3179    1.3548   -0.6470 H         1 ATP         0.0364
     34 H5'2        4.6083    1.5737    1.0983 H         1 ATP         0.0364
     35 H4'         2.3752    2.7029    1.3156 H         1 ATP         0.0945
     36 H3'         2.4336   -0.1217   -0.0015 H         1 ATP         0.0703
     37 HO3'        1.7160   -0.6716    2.0397 H         1 ATP         0.4099
     38 H2'         0.0316    0.0155   -0.0339 H         1 ATP         0.0676
     39 HO2'       -0.1608    0.7921    2.1351 H         1 ATP         0.4291
     40 H1'        -0.1474    2.7798   -0.6651 H         1 ATP         0.0950
     41 H8          2.4466    0.9468   -2.6694 H         1 ATP         0.1135
     42 HN62       -1.9661   -0.0965   -6.7275 H         1 ATP         0.3588
     43 H2         -3.9481    1.6825   -3.0660 H         1 ATP         0.0302
     44 H44        -3.4814    0.7753   -5.1133 H         1 ATP         0.4215
@<TRIPOS>BOND
     1    1    2 2
     2    1    3 1
     3    1    4 1
     4    1    8 1
     5    4   32 1
     6    5    6 2
     7    5    7 1
     8    5    8 1
     9    5   12 1
    10    9   10 2
    11    9   11 1
    12    9   12 1
    13    9   13 1
    14   13   14 1
    15   14   15 1
    16   14   33 1
    17   14   34 1
    18   15   16 1
    19   15   17 1
    20   15   35 1
    21   16   21 1
    22   17   18 1
    23   17   19 1
    24   17   36 1
    25   18   37 1
    26   19   20 1
    27   19   21 1
    28   19   38 1
    29   20   39 1
    30   21   22 1
    31   21   40 1
    32   22   23 ar
    33   22   31 ar
    34   23   24 ar
    35   23   41 1
    36   24   25 ar
    37   25   26 ar
    38   25   31 ar
    39   26   27 2
    40   26   28 ar
    41   27   42 1
    42   28   29 ar
    43   28   44 1
    44   29   30 ar
    45   29   43 1
    46   30   31 ar
@<TRIPOS>SUBSTRUCTURE
     1 ATP         1 GROUP 0 A     ****
@<TRIPOS>MOLECULE
[[[3,4-dihydroxy-5-(6-imino-1~{H}-purin-9-yl)tetrahydrofuran-2-yl]methoxy-oxido-phosphoryl]oxy-oxido-phosphoryl] hydrogen phosphate
   44    46     1     0     0
SMALL
USER_CHARGES

@<TRIPOS>ATOM
      1 PG          4.2046    4.8199    5.9350 P.3       1 ATP         1.5257
      2 O1G         2.8546    4.6154    6.5855 O.co2     1 ATP        -0.8737
      3 O2G         5.0008    6.0829    6.1773 O.co2     1 ATP        -0.8737
      4 O3G         5.1497    3.5358    6.2868 O.3       1 ATP        -0.7971
      5 PB          3.2501    5.4613    3.2108 P.3       1 ATP         1.6824
      6 O1B         1.7674    5.3423    3.4843 O.co2     1 ATP        -0.8925
      7 O2B         3.9161    6.8127    3.0778 O.co2     1 ATP        -0.8925
      8 O3B         4.0599    4.5862    4.3262 O.3       1 ATP        -0.8047
      9 PA          5.0664    4.2077    1.2399 P.3       1 ATP         1.5908
     10 O1A         5.8387    3.3445    2.2139 O.co2     1 ATP        -0.8932
     11 O2A         5.6685    5.4824    0.6902 O.co2     1 ATP        -0.8932
     12 O3A         3.6130    4.5668    1.8944 O.3       1 ATP        -0.8088
     13 O5'         4.5670    3.2937   -0.0211 O.3       1 ATP        -0.5646
     14 C5'         4.0922    1.9801    0.2227 C.3       1 ATP         0.2204
     15 C4'         2.5944    2.0310    0.4653 C.3       1 ATP         0.0965
     16 O4'         1.9327    2.5740   -0.6889 O.3       1 ATP        -0.3907
     17 C3'         1.9685    0.6634    0.6767 C.3       1 ATP         0.0763
     18 O3'         2.1425    0.1975    1.9977 O.3       1 ATP        -0.5884
     19 C2'         0.5176    0.9128    0.3099 C.3       1 ATP         0.0784
     20 O2'        -0.2103    1.4454    1.4152 O.3       1 ATP        -0.6085
     21 C1'         0.6219    1.9765   -0.7844 C.3       1 ATP         0.2186
     22 N9          0.4237    1.4496   -2.1357 N.pl3     1 ATP        -0.1699
     23 C8          1.4069    0.9710   -2.9662 C.ar      1 ATP         0.4438
     24 N7          0.9316    0.5623   -4.1260 N.2       1 ATP        -0.6280
     25 C5         -0.4120    0.7884   -4.0344 C.ar      1 ATP         0.2109
     26 C6         -1.4353    0.5283   -5.0204 C.ar      1 ATP         0.6180
     27 N6         -1.1199    0.0176   -6.1586 N.2       1 ATP        -0.8319
     28 N1         -2.6704    0.9095   -4.5147 N.pl3     1 ATP        -0.8664
     29 C2         -2.8863    1.4571   -3.2520 C.ar      1 ATP         0.5952
     30 N3         -1.9805    1.7017   -2.3442 N.2       1 ATP        -0.5599
     31 C4         -0.7561    1.3381   -2.8112 C.ar      1 ATP         0.0076
     32 HOG3        6.0648    3.5189    5.9338 H         1 ATP         0.4101
     33 H5'1        4.3179    1.3548   -0.6470 H         1 ATP         0.0364
     34 H5'2        4.6083    1.5737    1.0983 H         1 ATP         0.0364
     35 H4'         2.3752    2.7029    1.3156 H         1 ATP         0.0945
     36 H3'         2.4336   -0.1217   -0.0015 H         1 ATP         0.0703
     37 HO3'        3.0987    0.1465    2.1461 H         1 ATP         0.4099
     38 H2'         0.0316    0.0155   -0.0339 H         1 ATP         0.0676
     39 HO2'       -0.1608    0.7921    2.1351 H         1 ATP         0.4291
     40 H1'        -0.1474    2.7798   -0.6651 H         1 ATP         0.0950
     41 H8          2.4466    0.9468   -2.6694 H         1 ATP         0.1135
     42 HN62       -1.9661   -0.0965   -6.7275 H         1 ATP         0.3588
     43 H2         -3.9481    1.6825   -3.0660 H         1 ATP         0.0302
     44 H44        -3.4814    0.7753   -5.1133 H         1 ATP         0.4215
@<TRIPOS>BOND
     1    1    2 2
     2    1    3 1
     3    1    4 1
     4    1    8 1
     5    4   32 1
     6    5    6 2
     7    5    7 1
     8    5    8 1
     9    5   12 1
    10    9   10 2
    11    9   11 1
    12    9   12 1
    13    9   13 1
    14   13   14 1
    15   14   15 1
    16   14   33 1
    17   14   34 1
    18   15   16 1
    19   15   17 1
    20   15   35 1
    21   16   21 1
    22   17   18 1
    23   17   19 1
    24   17   36 1
    25   18   37 1
    26   19   20 1
    27   19   21 1
    28   19   38 1
    29   20   39 1
    30   21   22 1
    31   21   40 1
    32   22   23 ar
    33   22   31 ar
    34   23   24 ar
    35   23   41 1
    36   24   25 ar
    37   25   26 ar
    38   25   31 ar
    39   26   27 2
    40   26   28 ar
    41   27   42 1
    42   28   29 ar
    43   28   44 1
    44   29   30 ar
    45   29   43 1
    46   30   31 ar
@<TRIPOS>SUBSTRUCTURE
     1 ATP         1 GROUP 0 A     ****
@<TRIPOS>MOLECULE
[[[3,4-dihydroxy-5-(6-imino-1~{H}-purin-9-yl)tetrahydrofuran-2-yl]methoxy-oxido-phosphoryl]oxy-oxido-phosphoryl] hydrogen phosphate
   44    46     1     0     0
SMALL
USER_CHARGES

@<TRIPOS>ATOM
      1 PG         -3.3561   -2.3446    5.2980 P.3       1 ATP         1.5257
      2 O1G        -4.3294   -2.1267    6.4349 O.co2     1 ATP        -0.8737
      3 O2G        -2.0375   -3.0491    5.5278 O.co2     1 ATP        -0.8737
      4 O3G        -4.1410   -3.0979    4.0804 O.3       1 ATP        -0.7971
      5 PB         -4.1224    0.1715    3.9470 P.3       1 ATP         1.6824
      6 O1B        -4.8150   -0.4449    2.7521 O.co2     1 ATP        -0.8925
      7 O2B        -4.9138    0.7773    5.0847 O.co2     1 ATP        -0.8925
      8 O3B        -3.0714   -0.9163    4.5614 O.3       1 ATP        -0.8047
      9 PA         -3.2890    2.7005    2.6567 P.3       1 ATP         1.5908
     10 O1A        -3.9939    3.6421    3.6090 O.co2     1 ATP        -0.8932
     11 O2A        -3.8602    2.4175    1.2844 O.co2     1 ATP        -0.8932
     12 O3A        -3.0427    1.2741    3.4147 O.3       1 ATP        -0.8088
     13 O5'        -1.7336    3.1724    2.4750 O.3       1 ATP        -0.5646
     14 C5'        -0.8811    2.4285    1.6206 C.3       1 ATP         0.2204
     15 C4'        -0.1994    1.3333    2.4288 C.3       1 ATP         0.0965
     16 O4'        -1.1285    0.2356    2.5840 O.3       1 ATP        -0.3907
     17 C3'         1.0324    0.7610    1.7344 C.3       1 ATP         0.0763
     18 O3'         1.9175    0.2377    2.7247 O.3       1 ATP        -0.5884
     19 C2'         0.4468   -0.3802    0.9263 C.3       1 ATP         0.0784
     20 O2'         1.3993   -1.3703    0.5961 O.3       1 ATP        -0.6085
     21 C1'        -0.6159   -0.9100    1.8769 C.3       1 ATP         0.2186
     22 N9         -1.7127   -1.6108    1.2130 N.pl3     1 ATP        -0.1699
     23 C8         -2.5485   -1.0808    0.2609 C.ar      1 ATP         0.4438
     24 N7         -3.4476   -1.9486   -0.1593 N.2       1 ATP        -0.6280
     25 C5         -3.1762   -3.0816    0.5530 C.ar      1 ATP         0.2109
     26 C6         -3.8510   -4.3579    0.5006 C.ar      1 ATP         0.6180
     27 N6         -4.8468   -4.5293   -0.2961 N.2       1 ATP        -0.8319
     28 N1         -3.2499   -5.2342    1.3937 N.pl3     1 ATP        -0.8664
     29 C2         -2.1646   -4.9275    2.2116 C.ar      1 ATP         0.5952
     30 N3         -1.5382   -3.7840    2.2778 N.2       1 ATP        -0.5599
     31 C4         -2.1054   -2.9018    1.4120 C.ar      1 ATP         0.0076
     32 HOG3       -4.9163   -2.6515    3.6780 H         1 ATP         0.4101
     33 H5'1       -1.4800    1.9927    0.8146 H         1 ATP         0.0364
     34 H5'2       -0.1367    3.1040    1.1872 H         1 ATP         0.0364
     35 H4'         0.0403    1.7078    3.4343 H         1 ATP         0.0945
     36 H3'         1.5907    1.4859    1.1353 H         1 ATP         0.0703
     37 HO3'        2.1521    0.9800    3.3017 H         1 ATP         0.4099
     38 H2'        -0.0017    0.0018    0.0005 H         1 ATP         0.0676
     39 HO2'        0.9369   -2.0558    0.0825 H         1 ATP         0.4291
     40 H1'        -0.1998   -1.6319    2.6178 H         1 ATP         0.0950
     41 H8         -2.4515   -0.0599   -0.0829 H         1 ATP         0.1135
     42 HN62       -5.1990   -5.4882   -0.2005 H         1 ATP         0.3588
     43 H2         -1.8555   -5.7783    2.8388 H         1 ATP         0.0302
     44 H44        -3.6312   -6.1750    1.4526 H         1 ATP         0.4215
@<TRIPOS>BOND
     1    1    2 2
     2    1    3 1
     3    1    4 1
     4    1    8 1
     5    4   32 1
     6    5    6 2
     7    5    7 1
     8    5    8 1
     9    5   12 1
    10    9   10 2
    11    9   11 1
    12    9   12 1
    13    9   13 1
    14   13   14 1
    15   14   15 1
    16   14   33 1
    17   14   34 1
    18   15   16 1
    19   15   17 1
    20   15   35 1
    21   16   21 1
    22   17   18 1
    23   17   19 1
    24   17   36 1
    25   18   37 1
    26   19   20 1
    27   19   21 1
    28   19   38 1
    29   20   39 1
    30   21   22 1
    31   21   40 1
    32   22   23 ar
    33   22   31 ar
    34   23   24 ar
    35   23   41 1
    36   24   25 ar
    37   25   26 ar
    38   25   31 ar
    39   26   27 2
    40   26   28 ar
    41   27   42 1
    42   28   29 ar
    43   28   44 1
    44   29   30 ar
    45   29   43 1
    46   30   31 ar
@<TRIPOS>SUBSTRUCTURE
     1 ATP         1 GROUP 0 A     ****
@<TRIPOS>MOLECULE
[[[3,4-dihydroxy-5-(6-imino-1~{H}-purin-9-yl)tetrahydrofuran-2-yl]methoxy-oxido-phosphoryl]oxy-oxido-phosphoryl] hydrogen phosphate
   44    46     1     0     0
SMALL
USER_CHARGES

@<TRIPOS>ATOM
      1 PG         -6.7223    0.7685   -0.2212 P.3       1 ATP         1.5257
      2 O1G        -6.9241   -0.7263   -0.1107 O.co2     1 ATP        -0.8737
      3 O2G        -6.5978    1.4383   -1.5716 O.co2     1 ATP        -0.8737
      4 O3G        -7.9054    1.5152    0.6207 O.3       1 ATP        -0.7971
      5 PB         -5.1531    0.9035    2.2813 P.3       1 ATP         1.6824
      6 O1B        -6.1697    1.6501    3.1159 O.co2     1 ATP        -0.8925
      7 O2B        -4.9320   -0.5821    2.4600 O.co2     1 ATP        -0.8925
      8 O3B        -5.4497    1.2025    0.7039 O.3       1 ATP        -0.8047
      9 PA         -3.3347    3.2338    2.1468 P.3       1 ATP         1.5908
     10 O1A        -4.0314    4.0802    3.1901 O.co2     1 ATP        -0.8932
     11 O2A        -3.5037    3.5289    0.6724 O.co2     1 ATP        -0.8932
     12 O3A        -3.7146    1.6655    2.4035 O.3       1 ATP        -0.8088
     13 O5'        -1.7336    3.1724    2.4750 O.3       1 ATP        -0.5646
     14 C5'        -0.8811    2.4285    1.6206 C.3       1 ATP         0.2204
     15 C4'        -0.1994    1.3333    2.4288 C.3       1 ATP         0.0965
     16 O4'        -1.1285    0.2356    2.5840 O.3       1 ATP        -0.3907
     17 C3'         1.0324    0.7610    1.7344 C.3       1 ATP         0.0763
     18 O3'         1.9175    0.2377    2.7247 O.3       1 ATP        -0.5884
     19 C2'         0.4468   -0.3802    0.9263 C.3       1 ATP         0.0784
     20 O2'         1.3993   -1.3703    0.5961 O.3       1 ATP        -0.6085
     21 C1'        -0.6159   -0.9100    1.8769 C.3       1 ATP         0.2186
     22 N9         -1.7127   -1.6108    1.2130 N.pl3     1 ATP        -0.1699
     23 C8         -2.0868   -2.9137    1.4327 C.ar      1 ATP         0.4438
     24 N7         -3.1125   -3.2756    0.6878 N.2       1 ATP        -0.6280
     25 C5         -3.4079   -2.1580   -0.0391 C.ar      1 ATP         0.2109
     26 C6         -4.4483   -1.9775   -1.0249 C.ar      1 ATP         0.6180
     27 N6         -5.2418   -2.9492   -1.3113 N.2       1 ATP        -0.8319
     28 N1         -4.3937   -0.6823   -1.5211 N.pl3     1 ATP        -0.8664
     29 C2         -3.4770    0.2901   -1.1271 C.ar      1 ATP         0.5952
     30 N3         -2.5289    0.1525   -0.2402 N.2       1 ATP        -0.5599
     31 C4         -2.5564   -1.1096    0.2655 C.ar      1 ATP         0.0076
     32 HOG3       -7.9129    2.4958    0.6460 H         1 ATP         0.4101
     33 H5'1       -1.4800    1.9927    0.8146 H         1 ATP         0.0364
     34 H5'2       -0.1367    3.1040    1.1872 H         1 ATP         0.0364
     35 H4'         0.0403    1.7078    3.4343 H         1 ATP         0.0945
     36 H3'         1.5907    1.4859    1.1353 H         1 ATP         0.0703
     37 HO3'        2.6839   -0.1150    2.2479 H         1 ATP         0.4099
     38 H2'        -0.0017    0.0018    0.0005 H         1 ATP         0.0676
     39 HO2'        2.0953   -0.9375    0.0709 H         1 ATP         0.4291
     40 H1'        -0.1998   -1.6319    2.6178 H         1 ATP         0.0950
     41 H8         -1.5740   -3.5449    2.1457 H         1 ATP         0.1135
     42 HN62       -5.9117   -2.6433   -2.0256 H         1 ATP         0.3588
     43 H2         -3.6225    1.2454   -1.6553 H         1 ATP         0.0302
     44 H44        -5.0794   -0.4231   -2.2258 H         1 ATP         0.4215
@<TRIPOS>BOND
     1    1    2 2
     2    1    3 1
     3    1    4 1
     4    1    8 1
     5    4   32 1
     6    5    6 2
     7    5    7 1
     8    5    8 1
     9    5   12 1
    10    9   10 2
    11    9   11 1
    12    9   12 1
    13    9   13 1
    14   13   14 1
    15   14   15 1
    16   14   33 1
    17   14   34 1
    18   15   16 1
    19   15   17 1
    20   15   35 1
    21   16   21 1
    22   17   18 1
    23   17   19 1
    24   17   36 1
    25   18   37 1
    26   19   20 1
    27   19   21 1
    28   19   38 1
    29   20   39 1
    30   21   22 1
    31   21   40 1
    32   22   23 ar
    33   22   31 ar
    34   23   24 ar
    35   23   41 1
    36   24   25 ar
    37   25   26 ar
    38   25   31 ar
    39   26   27 2
    40   26   28 ar
    41   27   42 1
    42   28   29 ar
    43   28   44 1
    44   29   30 ar
    45   29   43 1
    46   30   31 ar
@<TRIPOS>SUBSTRUCTURE
     1 ATP         1 GROUP 0 A     ****
@<TRIPOS>MOLECULE
[[[3,4-dihydroxy-5-(6-imino-1~{H}-purin-9-yl)tetrahydrofuran-2-yl]methoxy-oxido-phosphoryl]oxy-oxido-phosphoryl] hydrogen phosphate
   44    46     1     0     0
SMALL
USER_CHARGES

@<TRIPOS>ATOM
      1 PG          6.6475    1.6106    6.0194 P.3       1 ATP         1.5257
      2 O1G         7.6772    0.5052    6.0914 O.co2     1 ATP        -0.8737
      3 O2G         5.3099    1.4732    6.7120 O.co2     1 ATP        -0.8737
      4 O3G         7.3454    3.0023    6.5114 O.3       1 ATP        -0.7971
      5 PB          7.4666    2.4152    3.2945 P.3       1 ATP         1.6824
      6 O1B         8.0794    3.7501    3.6549 O.co2     1 ATP        -0.8925
      7 O2B         8.3320    1.2147    2.9824 O.co2     1 ATP        -0.8925
      8 O3B         6.3954    2.0007    4.4548 O.3       1 ATP        -0.8047
      9 PA          5.1608    3.6754    1.9343 P.3       1 ATP         1.5908
     10 O1A         5.6998    5.0894    1.9151 O.co2     1 ATP        -0.8932
     11 O2A         4.0982    3.2661    2.9309 O.co2     1 ATP        -0.8932
     12 O3A         6.4153    2.6368    2.0655 O.3       1 ATP        -0.8088
     13 O5'         4.6405    3.2699    0.4378 O.3       1 ATP        -0.5646
     14 C5'         4.0922    1.9801    0.2227 C.3       1 ATP         0.2204
     15 C4'         2.5944    2.0310    0.4653 C.3       1 ATP         0.0965
     16 O4'         1.9327    2.5740   -0.6889 O.3       1 ATP        -0.3907
     17 C3'         1.9685    0.6634    0.6767 C.3       1 ATP         0.0763
     18 O3'         2.1425    0.1975    1.9977 O.3       1 ATP        -0.5884
     19 C2'         0.5176    0.9128    0.3099 C.3       1 ATP         0.0784
     20 O2'        -0.2103    1.4454    1.4152 O.3       1 ATP        -0.6085
     21 C1'         0.6219    1.9765   -0.7844 C.3       1 ATP         0.2186
     22 N9          0.4237    1.4496   -2.1357 N.pl3     1 ATP        -0.1699
     23 C8          1.4069    0.9710   -2.9662 C.ar      1 ATP         0.4438
     24 N7          0.9316    0.5623   -4.1260 N.2       1 ATP        -0.6280
     25 C5         -0.4120    0.7884   -4.0344 C.ar      1 ATP         0.2109
     26 C6         -1.4353    0.5283   -5.0204 C.ar      1 ATP         0.6180
     27 N6         -1.1199    0.0176   -6.1586 N.2       1 ATP        -0.8319
     28 N1         -2.6704    0.9095   -4.5147 N.pl3     1 ATP        -0.8664
     29 C2         -2.8863    1.4571   -3.2520 C.ar      1 ATP         0.5952
     30 N3         -1.9805    1.7017   -2.3442 N.2       1 ATP        -0.5599
     31 C4         -0.7561    1.3381   -2.8112 C.ar      1 ATP         0.0076
     32 HOG3        6.8020    3.8189    6.5217 H         1 ATP         0.4101
     33 H5'1        4.3028    1.6728   -0.8066 H         1 ATP         0.0364
     34 H5'2        4.5677    1.2738    0.9106 H         1 ATP         0.0364
     35 H4'         2.3752    2.7029    1.3156 H         1 ATP         0.0945
     36 H3'         2.4336   -0.1217   -0.0015 H         1 ATP         0.0703
     37 HO3'        1.7138    0.8467    2.5755 H         1 ATP         0.4099
     38 H2'         0.0316    0.0155   -0.0339 H         1 ATP         0.0676
     39 HO2'       -1.1270    1.5823    1.1180 H         1 ATP         0.4291
     40 H1'        -0.1474    2.7798   -0.6651 H         1 ATP         0.0950
     41 H8          2.4466    0.9468   -2.6694 H         1 ATP         0.1135
     42 HN62       -1.9661   -0.0965   -6.7275 H         1 ATP         0.3588
     43 H2         -3.9481    1.6825   -3.0660 H         1 ATP         0.0302
     44 H44        -3.4814    0.7753   -5.1133 H         1 ATP         0.4215
@<TRIPOS>BOND
     1    1    2 2
     2    1    3 1
     3    1    4 1
     4    1    8 1
     5    4   32 1
     6    5    6 2
     7    5    7 1
     8    5    8 1
     9    5   12 1
    10    9   10 2
    11    9   11 1
    12    9   12 1
    13    9   13 1
    14   13   14 1
    15   14   15 1
    16   14   33 1
    17   14   34 1
    18   15   16 1
    19   15   17 1
    20   15   35 1
    21   16   21 1
    22   17   18 1
    23   17   19 1
    24   17   36 1
    25   18   37 1
    26   19   20 1
    27   19   21 1
    28   19   38 1
    29   20   39 1
    30   21   22 1
    31   21   40 1
    32   22   23 ar
    33   22   31 ar
    34   23   24 ar
    35   23   41 1
    36   24   25 ar
    37   25   26 ar
    38   25   31 ar
    39   26   27 2
    40   26   28 ar
    41   27   42 1
    42   28   29 ar
    43   28   44 1
    44   29   30 ar
    45   29   43 1
    46   30   31 ar
@<TRIPOS>SUBSTRUCTURE
     1 ATP         1 GROUP 0 A     ****
@<TRIPOS>MOLECULE
[[[3,4-dihydroxy-5-(6-imino-1~{H}-purin-9-yl)tetrahydrofuran-2-yl]methoxy-oxido-phosphoryl]oxy-oxido-phosphoryl] hydrogen phosphate
   44    46     1     0     0
SMALL
USER_CHARGES

@<TRIPOS>ATOM
      1 PG          8.5243    6.4820    0.2548 P.3       1 ATP         1.5257
      2 O1G         9.8895    6.2715    0.8708 O.co2     1 ATP        -0.8737
      3 O2G         7.7687    7.7757    0.4629 O.co2     1 ATP        -0.8737
      4 O3G         8.6292    6.1953   -1.3492 O.3       1 ATP        -0.7971
      5 PB          6.9702    4.8017    2.1270 P.3       1 ATP         1.6824
      6 O1B         8.1219    4.3562    3.0003 O.co2     1 ATP        -0.8925
      7 O2B         5.9997    5.8644    2.5922 O.co2     1 ATP        -0.8925
      8 O3B         7.5577    5.2329    0.6659 O.3       1 ATP        -0.8047
      9 PA          5.2202    2.4549    2.5568 P.3       1 ATP         1.5908
     10 O1A         4.0260    3.2052    3.1057 O.co2     1 ATP        -0.8932
     11 O2A         6.1432    1.6889    3.4792 O.co2     1 ATP        -0.8932
     12 O3A         6.1232    3.4847    1.6658 O.3       1 ATP        -0.8088
     13 O5'         4.7294    1.4427    1.3696 O.3       1 ATP        -0.5646
     14 C5'         4.0922    1.9801    0.2227 C.3       1 ATP         0.2204
     15 C4'         2.5944    2.0310    0.4653 C.3       1 ATP         0.0965
     16 O4'         1.9327    2.5740   -0.6889 O.3       1 ATP        -0.3907
     17 C3'         1.9685    0.6634    0.6767 C.3       1 ATP         0.0763
     18 O3'         2.1425    0.1975    1.9977 O.3       1 ATP        -0.5884
     19 C2'         0.5176    0.9128    0.3099 C.3       1 ATP         0.0784
     20 O2'        -0.2103    1.4454    1.4152 O.3       1 ATP        -0.6085
     21 C1'         0.6219    1.9765   -0.7844 C.3       1 ATP         0.2186
     22 N9          0.4237    1.4496   -2.1357 N.pl3     1 ATP        -0.1699
     23 C8          1.4069    0.9710   -2.9662 C.ar      1 ATP         0.4438
     24 N7          0.9316    0.5623   -4.1260 N.2       1 ATP        -0.6280
     25 C5         -0.4120    0.7884   -4.0344 C.ar      1 ATP         0.2109
     26 C6         -1.4353    0.5283   -5.0204 C.ar      1 ATP         0.6180
     27 N6         -1.1199    0.0176   -6.1586 N.2       1 ATP        -0.8319
     28 N1         -2.6704    0.9095   -4.5147 N.pl3     1 ATP        -0.8664
     29 C2         -2.8863    1.4571   -3.2520 C.ar      1 ATP         0.5952
     30 N3         -1.9805    1.7017   -2.3442 N.2       1 ATP        -0.5599
     31 C4         -0.7561    1.3381   -2.8112 C.ar      1 ATP         0.0076
     32 HOG3        7.8194    6.2907   -1.8945 H         1 ATP         0.4101
     33 H5'1        4.4843    2.9854    0.0380 H         1 ATP         0.0364
     34 H5'2        4.3191    1.3446   -0.6392 H         1 ATP         0.0364
     35 H4'         2.3752    2.7029    1.3156 H         1 ATP         0.0945
     36 H3'         2.4336   -0.1217   -0.0015 H         1 ATP         0.0703
     37 HO3'        1.7160   -0.6716    2.0397 H         1 ATP         0.4099
     38 H2'         0.0316    0.0155   -0.0339 H         1 ATP         0.0676
     39 HO2'       -1.1270    1.5823    1.1180 H         1 ATP         0.4291
     40 H1'        -0.1474    2.7798   -0.6651 H         1 ATP         0.0950
     41 H8          2.4466    0.9468   -2.6694 H         1 ATP         0.1135
     42 HN62       -1.9661   -0.0965   -6.7275 H         1 ATP         0.3588
     43 H2         -3.9481    1.6825   -3.0660 H         1 ATP         0.0302
     44 H44        -3.4814    0.7753   -5.1133 H         1 ATP         0.4215
@<TRIPOS>BOND
     1    1    2 2
     2    1    3 1
     3    1    4 1
     4    1    8 1
     5    4   32 1
     6    5    6 2
     7    5    7 1
     8    5    8 1
     9    5   12 1
    10    9   10 2
    11    9   11 1
    12    9   12 1
    13    9   13 1
    14   13   14 1
    15   14   15 1
    16   14   33 1
    17   14   34 1
    18   15   16 1
    19   15   17 1
    20   15   35 1
    21   16   21 1
    22   17   18 1
    23   17   19 1
    24   17   36 1
    25   18   37 1
    26   19   20 1
    27   19   21 1
    28   19   38 1
    29   20   39 1
    30   21   22 1
    31   21   40 1
    32   22   23 ar
    33   22   31 ar
    34   23   24 ar
    35   23   41 1
    36   24   25 ar
    37   25   26 ar
    38   25   31 ar
    39   26   27 2
    40   26   28 ar
    41   27   42 1
    42   28   29 ar
    43   28   44 1
    44   29   30 ar
    45   29   43 1
    46   30   31 ar
@<TRIPOS>SUBSTRUCTURE
     1 ATP         1 GROUP 0 A     ****
@<TRIPOS>MOLECULE
[[[3,4-dihydroxy-5-(6-imino-1~{H}-purin-9-yl)tetrahydrofuran-2-yl]methoxy-oxido-phosphoryl]oxy-oxido-phosphoryl] hydrogen phosphate
   44    46     1     0     0
SMALL
USER_CHARGES

@<TRIPOS>ATOM
      1 PG          2.6251    5.3832    0.9962 P.3       1 ATP         1.5257
      2 O1G         2.7033    5.8891   -0.4269 O.co2     1 ATP        -0.8737
      3 O2G         2.1793    3.9691    1.2950 O.co2     1 ATP        -0.8737
      4 O3G         4.0688    5.6347    1.7162 O.3       1 ATP        -0.7971
      5 PB          0.1328    6.7663    1.7829 P.3       1 ATP         1.6824
      6 O1B        -0.2383    7.6674    2.9395 O.co2     1 ATP        -0.8925
      7 O2B        -0.1946    7.1477    0.3563 O.co2     1 ATP        -0.8925
      8 O3B         1.7252    6.4193    1.8796 O.3       1 ATP        -0.8047
      9 PA         -2.0037    4.7528    2.1522 P.3       1 ATP         1.5908
     10 O1A        -2.6322    4.8876    0.7821 O.co2     1 ATP        -0.8932
     11 O2A        -2.6544    5.3785    3.3666 O.co2     1 ATP        -0.8932
     12 O3A        -0.4564    5.2719    2.0738 O.3       1 ATP        -0.8088
     13 O5'        -1.7336    3.1724    2.4750 O.3       1 ATP        -0.5646
     14 C5'        -0.8811    2.4285    1.6206 C.3       1 ATP         0.2204
     15 C4'        -0.1994    1.3333    2.4288 C.3       1 ATP         0.0965
     16 O4'        -1.1285    0.2356    2.5840 O.3       1 ATP        -0.3907
     17 C3'         1.0324    0.7610    1.7344 C.3       1 ATP         0.0763
     18 O3'         1.9175    0.2377    2.7247 O.3       1 ATP        -0.5884
     19 C2'         0.4468   -0.3802    0.9263 C.3       1 ATP         0.0784
     20 O2'         1.3993   -1.3703    0.5961 O.3       1 ATP        -0.6085
     21 C1'        -0.6159   -0.9100    1.8769 C.3       1 ATP         0.2186
     22 N9         -1.7127   -1.6108    1.2130 N.pl3     1 ATP        -0.1699
     23 C8         -3.0370   -1.2489    1.2455 C.ar      1 ATP         0.4438
     24 N7         -3.8008   -2.0709    0.5534 N.2       1 ATP        -0.6280
     25 C5         -2.9295   -2.9976    0.0567 C.ar      1 ATP         0.2109
     26 C6         -3.2152   -4.1411   -0.7786 C.ar      1 ATP         0.6180
     27 N6         -4.4238   -4.3865   -1.1456 N.2       1 ATP        -0.8319
     28 N1         -2.0349   -4.8186   -1.0521 N.pl3     1 ATP        -0.8664
     29 C2         -0.7728   -4.4501   -0.5916 C.ar      1 ATP         0.5952
     30 N3         -0.4885   -3.4234    0.1630 N.2       1 ATP        -0.5599
     31 C4         -1.6274   -2.7377    0.4492 C.ar      1 ATP         0.0076
     32 HOG3        4.1791    5.3577    2.6507 H         1 ATP         0.4101
     33 H5'1       -1.4800    1.9927    0.8146 H         1 ATP         0.0364
     34 H5'2       -0.1367    3.1040    1.1872 H         1 ATP         0.0364
     35 H4'         0.0403    1.7078    3.4343 H         1 ATP         0.0945
     36 H3'         1.5907    1.4859    1.1353 H         1 ATP         0.0703
     37 HO3'        2.1521    0.9800    3.3017 H         1 ATP         0.4099
     38 H2'        -0.0017    0.0018    0.0005 H         1 ATP         0.0676
     39 HO2'        1.7495   -1.7243    1.4324 H         1 ATP         0.4291
     40 H1'        -0.1998   -1.6319    2.6178 H         1 ATP         0.0950
     41 H8         -3.3806   -0.3795    1.7893 H         1 ATP         0.1135
     42 HN62       -4.4384   -5.2300   -1.7295 H         1 ATP         0.3588
     43 H2          0.0180   -5.1355   -0.9348 H         1 ATP         0.0302
     44 H44        -2.0977   -5.6477   -1.6374 H         1 ATP         0.4215
@<TRIPOS>BOND
     1    1    2 2
     2    1    3 1
     3    1    4 1
     4    1    8 1
     5    4   32 1
     6    5    6 2
     7    5    7 1
     8    5    8 1
     9    5   12 1
    10    9   10 2
    11    9   11 1
    12    9   12 1
    13    9   13 1
    14   13   14 1
    15   14   15 1
    16   14   33 1
    17   14   34 1
    18   15   16 1
    19   15   17 1
    20   15   35 1
    21   16   21 1
    22   17   18 1
    23   17   19 1
    24   17   36 1
    25   18   37 1
    26   19   20 1
    27   19   21 1
    28   19   38 1
    29   20   39 1
    30   21   22 1
    31   21   40 1
    32   22   23 ar
    33   22   31 ar
    34   23   24 ar
    35   23   41 1
    36   24   25 ar
    37   25   26 ar
    38   25   31 ar
    39   26   27 2
    40   26   28 ar
    41   27   42 1
    42   28   29 ar
    43   28   44 1
    44   29   30 ar
    45   29   43 1
    46   30   31 ar
@<TRIPOS>SUBSTRUCTURE
     1 ATP         1 GROUP 0 A     ****
@<TRIPOS>MOLECULE
[[[3,4-dihydroxy-5-(6-imino-1~{H}-purin-9-yl)tetrahydrofuran-2-yl]methoxy-oxido-phosphoryl]oxy-oxido-phosphoryl] hydrogen phosphate
   44    46     1     0     0
SMALL
USER_CHARGES

@<TRIPOS>ATOM
      1 PG          3.9692    8.3154    3.4947 P.3       1 ATP         1.5257
      2 O1G         4.8582    8.1858    4.7114 O.co2     1 ATP        -0.8737
      3 O2G         2.5672    8.8706    3.6121 O.co2     1 ATP        -0.8737
      4 O3G         4.7705    9.1673    2.3553 O.3       1 ATP        -0.7971
      5 PB          3.2501    5.4613    3.2108 P.3       1 ATP         1.6824
      6 O1B         4.0428    4.9365    4.3872 O.co2     1 ATP        -0.8925
      7 O2B         1.7484    5.6240    3.2881 O.co2     1 ATP        -0.8925
      8 O3B         3.9057    6.8763    2.7275 O.3       1 ATP        -0.8047
      9 PA          5.0664    4.2077    1.2399 P.3       1 ATP         1.5908
     10 O1A         5.8387    3.3445    2.2139 O.co2     1 ATP        -0.8932
     11 O2A         5.6685    5.4824    0.6902 O.co2     1 ATP        -0.8932
     12 O3A         3.6130    4.5668    1.8944 O.3       1 ATP        -0.8088
     13 O5'         4.5670    3.2937   -0.0211 O.3       1 ATP        -0.5646
     14 C5'         4.0922    1.9801    0.2227 C.3       1 ATP         0.2204
     15 C4'         2.5944    2.0310    0.4653 C.3       1 ATP         0.0965
     16 O4'         1.9327    2.5740   -0.6889 O.3       1 ATP        -0.3907
     17 C3'         1.9685    0.6634    0.6767 C.3       1 ATP         0.0763
     18 O3'         2.1425    0.1975    1.9977 O.3       1 ATP        -0.5884
     19 C2'         0.5176    0.9128    0.3099 C.3       1 ATP         0.0784
     20 O2'        -0.2103    1.4454    1.4152 O.3       1 ATP        -0.6085
     21 C1'         0.6219    1.9765   -0.7844 C.3       1 ATP         0.2186
     22 N9          0.4237    1.4496   -2.1357 N.pl3     1 ATP        -0.1699
     23 C8          1.4069    0.9710   -2.9662 C.ar      1 ATP         0.4438
     24 N7          0.9316    0.5623   -4.1260 N.2       1 ATP        -0.6280
     25 C5         -0.4120    0.7884   -4.0344 C.ar      1 ATP         0.2109
     26 C6         -1.4353    0.5283   -5.0204 C.ar      1 ATP         0.6180
     27 N6         -1.1199    0.0176   -6.1586 N.2       1 ATP        -0.8319
     28 N1         -2.6704    0.9095   -4.5147 N.pl3     1 ATP        -0.8664
     29 C2         -2.8863    1.4571   -3.2520 C.ar      1 ATP         0.5952
     30 N3         -1.9805    1.7017   -2.3442 N.2       1 ATP        -0.5599
     31 C4         -0.7561    1.3381   -2.8112 C.ar      1 ATP         0.0076
     32 HOG3        4.3230    9.3381    1.4993 H         1 ATP         0.4101
     33 H5'1        4.3179    1.3548   -0.6470 H         1 ATP         0.0364
     34 H5'2        4.6083    1.5737    1.0983 H         1 ATP         0.0364
     35 H4'         2.3752    2.7029    1.3156 H         1 ATP         0.0945
     36 H3'         2.4336   -0.1217   -0.0015 H         1 ATP         0.0703
     37 HO3'        3.0987    0.1465    2.1461 H         1 ATP         0.4099
     38 H2'         0.0316    0.0155   -0.0339 H         1 ATP         0.0676
     39 HO2'       -0.1608    0.7921    2.1351 H         1 ATP         0.4291
     40 H1'        -0.1474    2.7798   -0.6651 H         1 ATP         0.0950
     41 H8          2.4466    0.9468   -2.6694 H         1 ATP         0.1135
     42 HN62       -1.9661   -0.0965   -6.7275 H         1 ATP         0.3588
     43 H2         -3.9481    1.6825   -3.0660 H         1 ATP         0.0302
     44 H44        -3.4814    0.7753   -5.1133 H         1 ATP         0.4215
@<TRIPOS>BOND
     1    1    2 2
     2    1    3 1
     3    1    4 1
     4    1    8 1
     5    4   32 1
     6    5    6 2
     7    5    7 1
     8    5    8 1
     9    5   12 1
    10    9   10 2
    11    9   11 1
    12    9   12 1
    13    9   13 1
    14   13   14 1
    15   14   15 1
    16   14   33 1
    17   14   34 1
    18   15   16 1
    19   15   17 1
    20   15   35 1
    21   16   21 1
    22   17   18 1
    23   17   19 1
    24   17   36 1
    25   18   37 1
    26   19   20 1
    27   19   21 1
    28   19   38 1
    29   20   39 1
    30   21   22 1
    31   21   40 1
    32   22   23 ar
    33   22   31 ar
    34   23   24 ar
    35   23   41 1
    36   24   25 ar
    37   25   26 ar
    38   25   31 ar
    39   26   27 2
    40   26   28 ar
    41   27   42 1
    42   28   29 ar
    43   28   44 1
    44   29   30 ar
    45   29   43 1
    46   30   31 ar
@<TRIPOS>SUBSTRUCTURE
     1 ATP         1 GROUP 0 A     ****
@<TRIPOS>MOLECULE
[[[3,4-dihydroxy-5-(6-imino-1~{H}-purin-9-yl)tetrahydrofuran-2-yl]methoxy-oxido-phosphoryl]oxy-oxido-phosphoryl] hydrogen phosphate
   44    46     1     0     0
SMALL
USER_CHARGES

@<TRIPOS>ATOM
      1 PG         -1.1740    5.4972    7.1673 P.3       1 ATP         1.5257
      2 O1G        -0.5439    6.8573    7.3683 O.co2     1 ATP        -0.8737
      3 O2G        -1.1157    4.4454    8.2526 O.co2     1 ATP        -0.8737
      4 O3G        -2.7337    5.7073    6.7323 O.3       1 ATP        -0.7971
      5 PB          0.8896    4.3527    5.3854 P.3       1 ATP         1.6824
      6 O1B         1.8039    5.5566    5.3377 O.co2     1 ATP        -0.8925
      7 O2B         1.2314    3.1423    6.2256 O.co2     1 ATP        -0.8925
      8 O3B        -0.6146    4.8531    5.7759 O.3       1 ATP        -0.8047
      9 PA          0.0330    4.7083    2.5757 P.3       1 ATP         1.5908
     10 O1A         1.0662    5.7450    2.1908 O.co2     1 ATP        -0.8932
     11 O2A        -1.3984    5.1102    2.8570 O.co2     1 ATP        -0.8932
     12 O3A         0.5902    3.8621    3.8575 O.3       1 ATP        -0.8088
     13 O5'         0.0178    3.5131    1.4595 O.3       1 ATP        -0.5646
     14 C5'        -0.8811    2.4285    1.6206 C.3       1 ATP         0.2204
     15 C4'        -0.1994    1.3333    2.4288 C.3       1 ATP         0.0965
     16 O4'        -1.1285    0.2356    2.5840 O.3       1 ATP        -0.3907
     17 C3'         1.0324    0.7610    1.7344 C.3       1 ATP         0.0763
     18 O3'         1.9175    0.2377    2.7247 O.3       1 ATP        -0.5884
     19 C2'         0.4468   -0.3802    0.9263 C.3       1 ATP         0.0784
     20 O2'         1.3993   -1.3703    0.5961 O.3       1 ATP        -0.6085
     21 C1'        -0.6159   -0.9100    1.8769 C.3       1 ATP         0.2186
     22 N9         -1.7127   -1.6108    1.2130 N.pl3     1 ATP        -0.1699
     23 C8         -2.0868   -2.9137    1.4327 C.ar      1 ATP         0.4438
     24 N7         -3.1125   -3.2756    0.6878 N.2       1 ATP        -0.6280
     25 C5         -3.4079   -2.1580   -0.0391 C.ar      1 ATP         0.2109
     26 C6         -4.4483   -1.9775   -1.0249 C.ar      1 ATP         0.6180
     27 N6         -5.2418   -2.9492   -1.3113 N.2       1 ATP        -0.8319
     28 N1         -4.3937   -0.6823   -1.5211 N.pl3     1 ATP        -0.8664
     29 C2         -3.4770    0.2901   -1.1271 C.ar      1 ATP         0.5952
     30 N3         -2.5289    0.1525   -0.2402 N.2       1 ATP        -0.5599
     31 C4         -2.5564   -1.1096    0.2655 C.ar      1 ATP         0.0076
     32 HOG3       -3.2827    4.9120    6.5639 H         1 ATP         0.4101
     33 H5'1       -1.7771    2.7849    2.1387 H         1 ATP         0.0364
     34 H5'2       -1.1654    2.0541    0.6320 H         1 ATP         0.0364
     35 H4'         0.0403    1.7078    3.4343 H         1 ATP         0.0945
     36 H3'         1.5907    1.4859    1.1353 H         1 ATP         0.0703
     37 HO3'        2.6839   -0.1150    2.2479 H         1 ATP         0.4099
     38 H2'        -0.0017    0.0018    0.0005 H         1 ATP         0.0676
     39 HO2'        2.0953   -0.9375    0.0709 H         1 ATP         0.4291
     40 H1'        -0.1998   -1.6319    2.6178 H         1 ATP         0.0950
     41 H8         -1.5740   -3.5449    2.1457 H         1 ATP         0.1135
     42 HN62       -5.9117   -2.6433   -2.0256 H         1 ATP         0.3588
     43 H2         -3.6225    1.2454   -1.6553 H         1 ATP         0.0302
     44 H44        -5.0794   -0.4231   -2.2258 H         1 ATP         0.4215
@<TRIPOS>BOND
     1    1    2 2
     2    1    3 1
     3    1    4 1
     4    1    8 1
     5    4   32 1
     6    5    6 2
     7    5    7 1
     8    5    8 1
     9    5   12 1
    10    9   10 2
    11    9   11 1
    12    9   12 1
    13    9   13 1
    14   13   14 1
    15   14   15 1
    16   14   33 1
    17   14   34 1
    18   15   16 1
    19   15   17 1
    20   15   35 1
    21   16   21 1
    22   17   18 1
    23   17   19 1
    24   17   36 1
    25   18   37 1
    26   19   20 1
    27   19   21 1
    28   19   38 1
    29   20   39 1
    30   21   22 1
    31   21   40 1
    32   22   23 ar
    33   22   31 ar
    34   23   24 ar
    35   23   41 1
    36   24   25 ar
    37   25   26 ar
    38   25   31 ar
    39   26   27 2
    40   26   28 ar
    41   27   42 1
    42   28   29 ar
    43   28   44 1
    44   29   30 ar
    45   29   43 1
    46   30   31 ar
@<TRIPOS>SUBSTRUCTURE
     1 ATP         1 GROUP 0 A     ****
@<TRIPOS>MOLECULE
[[[3,4-dihydroxy-5-(6-imino-1~{H}-purin-9-yl)tetrahydrofuran-2-yl]methoxy-oxido-phosphoryl]oxy-oxido-phosphoryl] hydrogen phosphate
   44    46     1     0     0
SMALL
USER_CHARGES

@<TRIPOS>ATOM
      1 PG         -0.7603    8.3380    1.4357 P.3       1 ATP         1.5257
      2 O1G         0.1036    7.8511    2.5777 O.co2     1 ATP        -0.8737
      3 O2G        -1.8967    9.3061    1.6787 O.co2     1 ATP        -0.8737
      4 O3G         0.2106    8.9583    0.2787 O.3       1 ATP        -0.7971
      5 PB         -2.3833    5.8917    1.0822 P.3       1 ATP         1.6824
      6 O1B        -3.6377    6.5589    1.6006 O.co2     1 ATP        -0.8925
      7 O2B        -2.4477    4.8304    0.0066 O.co2     1 ATP        -0.8925
      8 O3B        -1.3306    7.0485    0.6138 O.3       1 ATP        -0.8047
      9 PA         -1.9156    4.0918    3.3837 P.3       1 ATP         1.5908
     10 O1A        -3.2735    4.3719    3.9903 O.co2     1 ATP        -0.8932
     11 O2A        -0.7136    3.8310    4.2651 O.co2     1 ATP        -0.8932
     12 O3A        -1.5422    5.3014    2.3507 O.3       1 ATP        -0.8088
     13 O5'        -2.0401    2.8620    2.3128 O.3       1 ATP        -0.5646
     14 C5'        -0.8811    2.4285    1.6206 C.3       1 ATP         0.2204
     15 C4'        -0.1994    1.3333    2.4288 C.3       1 ATP         0.0965
     16 O4'        -1.1285    0.2356    2.5840 O.3       1 ATP        -0.3907
     17 C3'         1.0324    0.7610    1.7344 C.3       1 ATP         0.0763
     18 O3'         1.9175    0.2377    2.7247 O.3       1 ATP        -0.5884
     19 C2'         0.4468   -0.3802    0.9263 C.3       1 ATP         0.0784
     20 O2'         1.3993   -1.3703    0.5961 O.3       1 ATP        -0.6085
     21 C1'        -0.6159   -0.9100    1.8769 C.3       1 ATP         0.2186
     22 N9         -1.7127   -1.6108    1.2130 N.pl3     1 ATP        -0.1699
     23 C8         -3.0370   -1.2489    1.2455 C.ar      1 ATP         0.4438
     24 N7         -3.8008   -2.0709    0.5534 N.2       1 ATP        -0.6280
     25 C5         -2.9295   -2.9976    0.0567 C.ar      1 ATP         0.2109
     26 C6         -3.2152   -4.1411   -0.7786 C.ar      1 ATP         0.6180
     27 N6         -4.4238   -4.3865   -1.1456 N.2       1 ATP        -0.8319
     28 N1         -2.0349   -4.8186   -1.0521 N.pl3     1 ATP        -0.8664
     29 C2         -0.7728   -4.4501   -0.5916 C.ar      1 ATP         0.5952
     30 N3         -0.4885   -3.4234    0.1630 N.2       1 ATP        -0.5599
     31 C4         -1.6274   -2.7377    0.4492 C.ar      1 ATP         0.0076
     32 HOG3       -0.2033    9.3187   -0.5343 H         1 ATP         0.4101
     33 H5'1       -1.1767    2.0502    0.6368 H         1 ATP         0.0364
     34 H5'2       -0.2080    3.2814    1.4876 H         1 ATP         0.0364
     35 H4'         0.0403    1.7078    3.4343 H         1 ATP         0.0945
     36 H3'         1.5907    1.4859    1.1353 H         1 ATP         0.0703
     37 HO3'        2.1521    0.9800    3.3017 H         1 ATP         0.4099
     38 H2'        -0.0017    0.0018    0.0005 H         1 ATP         0.0676
     39 HO2'        0.9369   -2.0558    0.0825 H         1 ATP         0.4291
     40 H1'        -0.1998   -1.6319    2.6178 H         1 ATP         0.0950
     41 H8         -3.3806   -0.3795    1.7893 H         1 ATP         0.1135
     42 HN62       -4.4384   -5.2300   -1.7295 H         1 ATP         0.3588
     43 H2          0.0180   -5.1355   -0.9348 H         1 ATP         0.0302
     44 H44        -2.0977   -5.6477   -1.6374 H         1 ATP         0.4215
@<TRIPOS>BOND
     1    1    2 2
     2    1    3 1
     3    1    4 1
     4    1    8 1
     5    4   32 1
     6    5    6 2
     7    5    7 1
     8    5    8 1
     9    5   12 1
    10    9   10 2
    11    9   11 1
    12    9   12 1
    13    9   13 1
    14   13   14 1
    15   14   15 1
    16   14   33 1
    17   14   34 1
    18   15   16 1
    19   15   17 1
    20   15   35 1
    21   16   21 1
    22   17   18 1
    23   17   19 1
    24   17   36 1
    25   18   37 1
    26   19   20 1
    27   19   21 1
    28   19   38 1
    29   20   39 1
    30   21   22 1
    31   21   40 1
    32   22   23 ar
    33   22   31 ar
    34   23   24 ar
    35   23   41 1
    36   24   25 ar
    37   25   26 ar
    38   25   31 ar
    39   26   27 2
    40   26   28 ar
    41   27   42 1
    42   28   29 ar
    43   28   44 1
    44   29   30 ar
    45   29   43 1
    46   30   31 ar
@<TRIPOS>SUBSTRUCTURE
     1 ATP         1 GROUP 0 A     ****
@<TRIPOS>MOLECULE
[[[3,4-dihydroxy-5-(6-imino-1~{H}-purin-9-yl)tetrahydrofuran-2-yl]methoxy-oxido-phosphoryl]oxy-oxido-phosphoryl] hydrogen phosphate
   44    46     1     0     0
SMALL
USER_CHARGES

@<TRIPOS>ATOM
      1 PG         -4.1632    3.2529   -2.0433 P.3       1 ATP         1.5257
      2 O1G        -4.1760    1.8391   -1.5063 O.co2     1 ATP        -0.8737
      3 O2G        -2.9263    3.8234   -2.7009 O.co2     1 ATP        -0.8737
      4 O3G        -5.4231    3.4304   -3.0666 O.3       1 ATP        -0.7971
      5 PB         -3.9340    4.6679    0.5429 P.3       1 ATP         1.6824
      6 O1B        -2.5209    5.1230    0.2540 O.co2     1 ATP        -0.8925
      7 O2B        -4.8837    5.5255    1.3492 O.co2     1 ATP        -0.8925
      8 O3B        -4.6551    4.2722   -0.8674 O.3       1 ATP        -0.8047
      9 PA         -3.2890    2.7005    2.6567 P.3       1 ATP         1.5908
     10 O1A        -3.3524    1.1904    2.7326 O.co2     1 ATP        -0.8932
     11 O2A        -3.9196    3.5563    3.7336 O.co2     1 ATP        -0.8932
     12 O3A        -3.8782    3.1790    1.2098 O.3       1 ATP        -0.8088
     13 O5'        -1.7336    3.1724    2.4750 O.3       1 ATP        -0.5646
     14 C5'        -0.8811    2.4285    1.6206 C.3       1 ATP         0.2204
     15 C4'        -0.1994    1.3333    2.4288 C.3       1 ATP         0.0965
     16 O4'        -1.1285    0.2356    2.5840 O.3       1 ATP        -0.3907
     17 C3'         1.0324    0.7610    1.7344 C.3       1 ATP         0.0763
     18 O3'         1.9175    0.2377    2.7247 O.3       1 ATP        -0.5884
     19 C2'         0.4468   -0.3802    0.9263 C.3       1 ATP         0.0784
     20 O2'         1.3993   -1.3703    0.5961 O.3       1 ATP        -0.6085
     21 C1'        -0.6159   -0.9100    1.8769 C.3       1 ATP         0.2186
     22 N9         -1.7127   -1.6108    1.2130 N.pl3     1 ATP        -0.1699
     23 C8         -2.5485   -1.0808    0.2609 C.ar      1 ATP         0.4438
     24 N7         -3.4476   -1.9486   -0.1593 N.2       1 ATP        -0.6280
     25 C5         -3.1762   -3.0816    0.5530 C.ar      1 ATP         0.2109
     26 C6         -3.8510   -4.3579    0.5006 C.ar      1 ATP         0.6180
     27 N6         -4.8468   -4.5293   -0.2961 N.2       1 ATP        -0.8319
     28 N1         -3.2499   -5.2342    1.3937 N.pl3     1 ATP        -0.8664
     29 C2         -2.1646   -4.9275    2.2116 C.ar      1 ATP         0.5952
     30 N3         -1.5382   -3.7840    2.2778 N.2       1 ATP        -0.5599
     31 C4         -2.1054   -2.9018    1.4120 C.ar      1 ATP         0.0076
     32 HOG3       -5.5526    4.3002   -3.5012 H         1 ATP         0.4101
     33 H5'1       -1.4800    1.9927    0.8146 H         1 ATP         0.0364
     34 H5'2       -0.1367    3.1040    1.1872 H         1 ATP         0.0364
     35 H4'         0.0403    1.7078    3.4343 H         1 ATP         0.0945
     36 H3'         1.5907    1.4859    1.1353 H         1 ATP         0.0703
     37 HO3'        2.6839   -0.1150    2.2479 H         1 ATP         0.4099
     38 H2'        -0.0017    0.0018    0.0005 H         1 ATP         0.0676
     39 HO2'        2.0953   -0.9375    0.0709 H         1 ATP         0.4291
     40 H1'        -0.1998   -1.6319    2.6178 H         1 ATP         0.0950
     41 H8         -2.4515   -0.0599   -0.0829 H         1 ATP         0.1135
     42 HN62       -5.1990   -5.4882   -0.2005 H         1 ATP         0.3588
     43 H2         -1.8555   -5.7783    2.8388 H         1 ATP         0.0302
     44 H44        -3.6312   -6.1750    1.4526 H         1 ATP         0.4215
@<TRIPOS>BOND
     1    1    2 2
     2    1    3 1
     3    1    4 1
     4    1    8 1
     5    4   32 1
     6    5    6 2
     7    5    7 1
     8    5    8 1
     9    5   12 1
    10    9   10 2
    11    9   11 1
    12    9   12 1
    13    9   13 1
    14   13   14 1
    15   14   15 1
    16   14   33 1
    17   14   34 1
    18   15   16 1
    19   15   17 1
    20   15   35 1
    21   16   21 1
    22   17   18 1
    23   17   19 1
    24   17   36 1
    25   18   37 1
    26   19   20 1
    27   19   21 1
    28   19   38 1
    29   20   39 1
    30   21   22 1
    31   21   40 1
    32   22   23 ar
    33   22   31 ar
    34   23   24 ar
    35   23   41 1
    36   24   25 ar
    37   25   26 ar
    38   25   31 ar
    39   26   27 2
    40   26   28 ar
    41   27   42 1
    42   28   29 ar
    43   28   44 1
    44   29   30 ar
    45   29   43 1
    46   30   31 ar
@<TRIPOS>SUBSTRUCTURE
     1 ATP         1 GROUP 0 A     ****
@<TRIPOS>MOLECULE
[[[3,4-dihydroxy-5-(6-imino-1~{H}-purin-9-yl)tetrahydrofuran-2-yl]methoxy-oxido-phosphoryl]oxy-oxido-phosphoryl] hydrogen phosphate
   44    46     1     0     0
SMALL
USER_CHARGES

@<TRIPOS>ATOM
      1 PG          9.1835    4.7166    4.0860 P.3       1 ATP         1.5257
      2 O1G         8.5736    5.6270    5.1284 O.co2     1 ATP        -0.8737
      3 O2G        10.2854    5.2081    3.1737 O.co2     1 ATP        -0.8737
      4 O3G         9.6913    3.3510    4.8231 O.3       1 ATP        -0.7971
      5 PB          6.9702    4.8017    2.1270 P.3       1 ATP         1.6824
      6 O1B         6.0525    5.7219    2.9006 O.co2     1 ATP        -0.8925
      7 O2B         7.7681    5.3042    0.9444 O.co2     1 ATP        -0.8925
      8 O3B         7.9896    4.0763    3.1759 O.3       1 ATP        -0.8047
      9 PA          5.2202    2.4549    2.5568 P.3       1 ATP         1.5908
     10 O1A         4.0260    3.2052    3.1057 O.co2     1 ATP        -0.8932
     11 O2A         6.1432    1.6889    3.4792 O.co2     1 ATP        -0.8932
     12 O3A         6.1232    3.4847    1.6658 O.3       1 ATP        -0.8088
     13 O5'         4.7294    1.4427    1.3696 O.3       1 ATP        -0.5646
     14 C5'         4.0922    1.9801    0.2227 C.3       1 ATP         0.2204
     15 C4'         2.5944    2.0310    0.4653 C.3       1 ATP         0.0965
     16 O4'         1.9327    2.5740   -0.6889 O.3       1 ATP        -0.3907
     17 C3'         1.9685    0.6634    0.6767 C.3       1 ATP         0.0763
     18 O3'         2.1425    0.1975    1.9977 O.3       1 ATP        -0.5884
     19 C2'         0.5176    0.9128    0.3099 C.3       1 ATP         0.0784
     20 O2'        -0.2103    1.4454    1.4152 O.3       1 ATP        -0.6085
     21 C1'         0.6219    1.9765   -0.7844 C.3       1 ATP         0.2186
     22 N9          0.4237    1.4496   -2.1357 N.pl3     1 ATP        -0.1699
     23 C8          1.4069    0.9710   -2.9662 C.ar      1 ATP         0.4438
     24 N7          0.9316    0.5623   -4.1260 N.2       1 ATP        -0.6280
     25 C5         -0.4120    0.7884   -4.0344 C.ar      1 ATP         0.2109
     26 C6         -1.4353    0.5283   -5.0204 C.ar      1 ATP         0.6180
     27 N6         -1.1199    0.0176   -6.1586 N.2       1 ATP        -0.8319
     28 N1         -2.6704    0.9095   -4.5147 N.pl3     1 ATP        -0.8664
     29 C2         -2.8863    1.4571   -3.2520 C.ar      1 ATP         0.5952
     30 N3         -1.9805    1.7017   -2.3442 N.2       1 ATP        -0.5599
     31 C4         -0.7561    1.3381   -2.8112 C.ar      1 ATP         0.0076
     32 HOG3       10.1135    2.6546    4.2763 H         1 ATP         0.4101
     33 H5'1        4.4843    2.9854    0.0380 H         1 ATP         0.0364
     34 H5'2        4.3191    1.3446   -0.6392 H         1 ATP         0.0364
     35 H4'         2.3752    2.7029    1.3156 H         1 ATP         0.0945
     36 H3'         2.4336   -0.1217   -0.0015 H         1 ATP         0.0703
     37 HO3'        3.0987    0.1465    2.1461 H         1 ATP         0.4099
     38 H2'         0.0316    0.0155   -0.0339 H         1 ATP         0.0676
     39 HO2'       -1.1270    1.5823    1.1180 H         1 ATP         0.4291
     40 H1'        -0.1474    2.7798   -0.6651 H         1 ATP         0.0950
     41 H8          2.4466    0.9468   -2.6694 H         1 ATP         0.1135
     42 HN62       -1.9661   -0.0965   -6.7275 H         1 ATP         0.3588
     43 H2         -3.9481    1.6825   -3.0660 H         1 ATP         0.0302
     44 H44        -3.4814    0.7753   -5.1133 H         1 ATP         0.4215
@<TRIPOS>BOND
     1    1    2 2
     2    1    3 1
     3    1    4 1
     4    1    8 1
     5    4   32 1
     6    5    6 2
     7    5    7 1
     8    5    8 1
     9    5   12 1
    10    9   10 2
    11    9   11 1
    12    9   12 1
    13    9   13 1
    14   13   14 1
    15   14   15 1
    16   14   33 1
    17   14   34 1
    18   15   16 1
    19   15   17 1
    20   15   35 1
    21   16   21 1
    22   17   18 1
    23   17   19 1
    24   17   36 1
    25   18   37 1
    26   19   20 1
    27   19   21 1
    28   19   38 1
    29   20   39 1
    30   21   22 1
    31   21   40 1
    32   22   23 ar
    33   22   31 ar
    34   23   24 ar
    35   23   41 1
    36   24   25 ar
    37   25   26 ar
    38   25   31 ar
    39   26   27 2
    40   26   28 ar
    41   27   42 1
    42   28   29 ar
    43   28   44 1
    44   29   30 ar
    45   29   43 1
    46   30   31 ar
@<TRIPOS>SUBSTRUCTURE
     1 ATP         1 GROUP 0 A     ****
@<TRIPOS>MOLECULE
[[[3,4-dihydroxy-5-(6-imino-1~{H}-purin-9-yl)tetrahydrofuran-2-yl]methoxy-oxido-phosphoryl]oxy-oxido-phosphoryl] hydrogen phosphate
   44    46     1     0     0
SMALL
USER_CHARGES

@<TRIPOS>ATOM
      1 PG          2.0270   -4.3169    0.6192 P.3       1 ATP         1.5257
      2 O1G         0.5534   -4.0217    0.4493 O.co2     1 ATP        -0.8737
      3 O2G         2.5075   -5.2991    1.6641 O.co2     1 ATP        -0.8737
      4 O3G         2.6373   -4.7605   -0.8288 O.3       1 ATP        -0.7971
      5 PB          4.4388   -2.6254    0.8751 P.3       1 ATP         1.6824
      6 O1B         4.9871   -3.2474    2.1400 O.co2     1 ATP        -0.8925
      7 O2B         5.0446   -2.9339   -0.4760 O.co2     1 ATP        -0.8925
      8 O3B         2.8326   -2.9098    0.8057 O.3       1 ATP        -0.8047
      9 PA          5.6073    0.0705    1.2242 P.3       1 ATP         1.5908
     10 O1A         6.3913    0.1078   -0.0697 O.co2     1 ATP        -0.8932
     11 O2A         6.3031   -0.1872    2.5430 O.co2     1 ATP        -0.8932
     12 O3A         4.3874   -1.0053    1.0684 O.3       1 ATP        -0.8088
     13 O5'         4.7294    1.4427    1.3696 O.3       1 ATP        -0.5646
     14 C5'         4.0922    1.9801    0.2227 C.3       1 ATP         0.2204
     15 C4'         2.5944    2.0310    0.4653 C.3       1 ATP         0.0965
     16 O4'         1.9327    2.5740   -0.6889 O.3       1 ATP        -0.3907
     17 C3'         1.9685    0.6634    0.6767 C.3       1 ATP         0.0763
     18 O3'         2.1425    0.1975    1.9977 O.3       1 ATP        -0.5884
     19 C2'         0.5176    0.9128    0.3099 C.3       1 ATP         0.0784
     20 O2'        -0.2103    1.4454    1.4152 O.3       1 ATP        -0.6085
     21 C1'         0.6219    1.9765   -0.7844 C.3       1 ATP         0.2186
     22 N9          0.4237    1.4496   -2.1357 N.pl3     1 ATP        -0.1699
     23 C8          1.4069    0.9710   -2.9662 C.ar      1 ATP         0.4438
     24 N7          0.9316    0.5623   -4.1260 N.2       1 ATP        -0.6280
     25 C5         -0.4120    0.7884   -4.0344 C.ar      1 ATP         0.2109
     26 C6         -1.4353    0.5283   -5.0204 C.ar      1 ATP         0.6180
     27 N6         -1.1199    0.0176   -6.1586 N.2       1 ATP        -0.8319
     28 N1         -2.6704    0.9095   -4.5147 N.pl3     1 ATP        -0.8664
     29 C2         -2.8863    1.4571   -3.2520 C.ar      1 ATP         0.5952
     30 N3         -1.9805    1.7017   -2.3442 N.2       1 ATP        -0.5599
     31 C4         -0.7561    1.3381   -2.8112 C.ar      1 ATP         0.0076
     32 HOG3        3.5903   -4.9864   -0.8844 H         1 ATP         0.4101
     33 H5'1        4.4843    2.9854    0.0380 H         1 ATP         0.0364
     34 H5'2        4.3191    1.3446   -0.6392 H         1 ATP         0.0364
     35 H4'         2.3752    2.7029    1.3156 H         1 ATP         0.0945
     36 H3'         2.4336   -0.1217   -0.0015 H         1 ATP         0.0703
     37 HO3'        1.7160   -0.6716    2.0397 H         1 ATP         0.4099
     38 H2'         0.0316    0.0155   -0.0339 H         1 ATP         0.0676
     39 HO2'       -0.1608    0.7921    2.1351 H         1 ATP         0.4291
     40 H1'        -0.1474    2.7798   -0.6651 H         1 ATP         0.0950
     41 H8          2.4466    0.9468   -2.6694 H         1 ATP         0.1135
     42 HN62       -1.9661   -0.0965   -6.7275 H         1 ATP         0.3588
     43 H2         -3.9481    1.6825   -3.0660 H         1 ATP         0.0302
     44 H44        -3.4814    0.7753   -5.1133 H         1 ATP         0.4215
@<TRIPOS>BOND
     1    1    2 2
     2    1    3 1
     3    1    4 1
     4    1    8 1
     5    4   32 1
     6    5    6 2
     7    5    7 1
     8    5    8 1
     9    5   12 1
    10    9   10 2
    11    9   11 1
    12    9   12 1
    13    9   13 1
    14   13   14 1
    15   14   15 1
    16   14   33 1
    17   14   34 1
    18   15   16 1
    19   15   17 1
    20   15   35 1
    21   16   21 1
    22   17   18 1
    23   17   19 1
    24   17   36 1
    25   18   37 1
    26   19   20 1
    27   19   21 1
    28   19   38 1
    29   20   39 1
    30   21   22 1
    31   21   40 1
    32   22   23 ar
    33   22   31 ar
    34   23   24 ar
    35   23   41 1
    36   24   25 ar
    37   25   26 ar
    38   25   31 ar
    39   26   27 2
    40   26   28 ar
    41   27   42 1
    42   28   29 ar
    43   28   44 1
    44   29   30 ar
    45   29   43 1
    46   30   31 ar
@<TRIPOS>SUBSTRUCTURE
     1 ATP         1 GROUP 0 A     ****
@<TRIPOS>MOLECULE
[[[3,4-dihydroxy-5-(6-imino-1~{H}-purin-9-yl)tetrahydrofuran-2-yl]methoxy-oxido-phosphoryl]oxy-oxido-phosphoryl] hydrogen phosphate
   44    46     1     0     0
SMALL
USER_CHARGES

@<TRIPOS>ATOM
      1 PG         -2.4884    5.7354   -1.8763 P.3       1 ATP         1.5257
      2 O1G        -1.3012    5.4545   -0.9825 O.co2     1 ATP        -0.8737
      3 O2G        -3.2306    7.0507   -1.7923 O.co2     1 ATP        -0.8737
      4 O3G        -2.0394    5.4917   -3.4271 O.3       1 ATP        -0.7971
      5 PB         -4.4707    4.0626   -0.4565 P.3       1 ATP         1.6824
      6 O1B        -5.2444    5.2654    0.0357 O.co2     1 ATP        -0.8925
      7 O2B        -5.1709    2.7649   -0.7929 O.co2     1 ATP        -0.8925
      8 O3B        -3.5607    4.5131   -1.7350 O.3       1 ATP        -0.8047
      9 PA         -3.3347    3.2338    2.1468 P.3       1 ATP         1.5908
     10 O1A        -3.9081    1.8334    2.1683 O.co2     1 ATP        -0.8932
     11 O2A        -3.9472    4.3334    2.9866 O.co2     1 ATP        -0.8932
     12 O3A        -3.2646    3.7490    0.5978 O.3       1 ATP        -0.8088
     13 O5'        -1.7336    3.1724    2.4750 O.3       1 ATP        -0.5646
     14 C5'        -0.8811    2.4285    1.6206 C.3       1 ATP         0.2204
     15 C4'        -0.1994    1.3333    2.4288 C.3       1 ATP         0.0965
     16 O4'        -1.1285    0.2356    2.5840 O.3       1 ATP        -0.3907
     17 C3'         1.0324    0.7610    1.7344 C.3       1 ATP         0.0763
     18 O3'         1.9175    0.2377    2.7247 O.3       1 ATP        -0.5884
     19 C2'         0.4468   -0.3802    0.9263 C.3       1 ATP         0.0784
     20 O2'         1.3993   -1.3703    0.5961 O.3       1 ATP        -0.6085
     21 C1'        -0.6159   -0.9100    1.8769 C.3       1 ATP         0.2186
     22 N9         -1.7127   -1.6108    1.2130 N.pl3     1 ATP        -0.1699
     23 C8         -3.0370   -1.2489    1.2455 C.ar      1 ATP         0.4438
     24 N7         -3.8008   -2.0709    0.5534 N.2       1 ATP        -0.6280
     25 C5         -2.9295   -2.9976    0.0567 C.ar      1 ATP         0.2109
     26 C6         -3.2152   -4.1411   -0.7786 C.ar      1 ATP         0.6180
     27 N6         -4.4238   -4.3865   -1.1456 N.2       1 ATP        -0.8319
     28 N1         -2.0349   -4.8186   -1.0521 N.pl3     1 ATP        -0.8664
     29 C2         -0.7728   -4.4501   -0.5916 C.ar      1 ATP         0.5952
     30 N3         -0.4885   -3.4234    0.1630 N.2       1 ATP        -0.5599
     31 C4         -1.6274   -2.7377    0.4492 C.ar      1 ATP         0.0076
     32 HOG3       -2.7048    5.6341   -4.1337 H         1 ATP         0.4101
     33 H5'1       -1.4800    1.9927    0.8146 H         1 ATP         0.0364
     34 H5'2       -0.1367    3.1040    1.1872 H         1 ATP         0.0364
     35 H4'         0.0403    1.7078    3.4343 H         1 ATP         0.0945
     36 H3'         1.5907    1.4859    1.1353 H         1 ATP         0.0703
     37 HO3'        2.1521    0.9800    3.3017 H         1 ATP         0.4099
     38 H2'        -0.0017    0.0018    0.0005 H         1 ATP         0.0676
     39 HO2'        1.7495   -1.7243    1.4324 H         1 ATP         0.4291
     40 H1'        -0.1998   -1.6319    2.6178 H         1 ATP         0.0950
     41 H8         -3.3806   -0.3795    1.7893 H         1 ATP         0.1135
     42 HN62       -4.4384   -5.2300   -1.7295 H         1 ATP         0.3588
     43 H2          0.0180   -5.1355   -0.9348 H         1 ATP         0.0302
     44 H44        -2.0977   -5.6477   -1.6374 H         1 ATP         0.4215
@<TRIPOS>BOND
     1    1    2 2
     2    1    3 1
     3    1    4 1
     4    1    8 1
     5    4   32 1
     6    5    6 2
     7    5    7 1
     8    5    8 1
     9    5   12 1
    10    9   10 2
    11    9   11 1
    12    9   12 1
    13    9   13 1
    14   13   14 1
    15   14   15 1
    16   14   33 1
    17   14   34 1
    18   15   16 1
    19   15   17 1
    20   15   35 1
    21   16   21 1
    22   17   18 1
    23   17   19 1
    24   17   36 1
    25   18   37 1
    26   19   20 1
    27   19   21 1
    28   19   38 1
    29   20   39 1
    30   21   22 1
    31   21   40 1
    32   22   23 ar
    33   22   31 ar
    34   23   24 ar
    35   23   41 1
    36   24   25 ar
    37   25   26 ar
    38   25   31 ar
    39   26   27 2
    40   26   28 ar
    41   27   42 1
    42   28   29 ar
    43   28   44 1
    44   29   30 ar
    45   29   43 1
    46   30   31 ar
@<TRIPOS>SUBSTRUCTURE
     1 ATP         1 GROUP 0 A     ****
@<TRIPOS>MOLECULE
[[[3,4-dihydroxy-5-(6-imino-1~{H}-purin-9-yl)tetrahydrofuran-2-yl]methoxy-oxido-phosphoryl]oxy-oxido-phosphoryl] hydrogen phosphate
   44    46     1     0     0
SMALL
USER_CHARGES

@<TRIPOS>ATOM
      1 PG          5.1662    1.6312   -1.0005 P.3       1 ATP         1.5257
      2 O1G         4.9758    1.4441   -2.4891 O.co2     1 ATP        -0.8737
      3 O2G         5.6439    0.4913   -0.1286 O.co2     1 ATP        -0.8737
      4 O3G         6.1475    2.9140   -0.7603 O.3       1 ATP        -0.7971
      5 PB          2.9416    3.5685   -0.7969 P.3       1 ATP         1.6824
      6 O1B         3.7724    4.7988   -0.5078 O.co2     1 ATP        -0.8925
      7 O2B         2.3430    3.3313   -2.1654 O.co2     1 ATP        -0.8925
      8 O3B         3.7956    2.2464   -0.3628 O.3       1 ATP        -0.8047
      9 PA          0.4655    4.4361    0.5710 P.3       1 ATP         1.5908
     10 O1A        -0.4570    4.3402   -0.6249 O.co2     1 ATP        -0.8932
     11 O2A         0.9689    5.7789    1.0539 O.co2     1 ATP        -0.8932
     12 O3A         1.7548    3.4645    0.3191 O.3       1 ATP        -0.8088
     13 O5'        -0.2062    3.6557    1.8417 O.3       1 ATP        -0.5646
     14 C5'        -0.8811    2.4285    1.6206 C.3       1 ATP         0.2204
     15 C4'        -0.1994    1.3333    2.4288 C.3       1 ATP         0.0965
     16 O4'        -1.1285    0.2356    2.5840 O.3       1 ATP        -0.3907
     17 C3'         1.0324    0.7610    1.7344 C.3       1 ATP         0.0763
     18 O3'         1.9175    0.2377    2.7247 O.3       1 ATP        -0.5884
     19 C2'         0.4468   -0.3802    0.9263 C.3       1 ATP         0.0784
     20 O2'         1.3993   -1.3703    0.5961 O.3       1 ATP        -0.6085
     21 C1'        -0.6159   -0.9100    1.8769 C.3       1 ATP         0.2186
     22 N9         -1.7127   -1.6108    1.2130 N.pl3     1 ATP        -0.1699
     23 C8         -2.8662   -1.0361    0.7388 C.ar      1 ATP         0.4438
     24 N7         -3.6774   -1.9166    0.1867 N.2       1 ATP        -0.6280
     25 C5         -3.0159   -3.1045    0.3122 C.ar      1 ATP         0.2109
     26 C6         -3.4377   -4.4169   -0.1199 C.ar      1 ATP         0.6180
     27 N6         -4.5720   -4.5691   -0.7080 N.2       1 ATP        -0.8319
     28 N1         -2.4600   -5.3463    0.2071 N.pl3     1 ATP        -0.8664
     29 C2         -1.2595   -5.0554    0.8515 C.ar      1 ATP         0.5952
     30 N3         -0.8555   -3.8803    1.2516 N.2       1 ATP        -0.5599
     31 C4         -1.7946   -2.9457    0.9448 C.ar      1 ATP         0.0076
     32 HOG3        6.3689    3.1663    0.1614 H         1 ATP         0.4101
     33 H5'1       -1.9256    2.5380    1.9293 H         1 ATP         0.0364
     34 H5'2       -0.8474    2.1930    0.5521 H         1 ATP         0.0364
     35 H4'         0.0403    1.7078    3.4343 H         1 ATP         0.0945
     36 H3'         1.5907    1.4859    1.1353 H         1 ATP         0.0703
     37 HO3'        2.6839   -0.1150    2.2479 H         1 ATP         0.4099
     38 H2'        -0.0017    0.0018    0.0005 H         1 ATP         0.0676
     39 HO2'        2.0953   -0.9375    0.0709 H         1 ATP         0.4291
     40 H1'        -0.1998   -1.6319    2.6178 H         1 ATP         0.0950
     41 H8         -3.0558    0.0252    0.8256 H         1 ATP         0.1135
     42 HN62       -4.7047   -5.5592   -0.9421 H         1 ATP         0.3588
     43 H2         -0.6372   -5.9505    1.0077 H         1 ATP         0.0302
     44 H44        -2.6338   -6.3155   -0.0469 H         1 ATP         0.4215
@<TRIPOS>BOND
     1    1    2 2
     2    1    3 1
     3    1    4 1
     4    1    8 1
     5    4   32 1
     6    5    6 2
     7    5    7 1
     8    5    8 1
     9    5   12 1
    10    9   10 2
    11    9   11 1
    12    9   12 1
    13    9   13 1
    14   13   14 1
    15   14   15 1
    16   14   33 1
    17   14   34 1
    18   15   16 1
    19   15   17 1
    20   15   35 1
    21   16   21 1
    22   17   18 1
    23   17   19 1
    24   17   36 1
    25   18   37 1
    26   19   20 1
    27   19   21 1
    28   19   38 1
    29   20   39 1
    30   21   22 1
    31   21   40 1
    32   22   23 ar
    33   22   31 ar
    34   23   24 ar
    35   23   41 1
    36   24   25 ar
    37   25   26 ar
    38   25   31 ar
    39   26   27 2
    40   26   28 ar
    41   27   42 1
    42   28   29 ar
    43   28   44 1
    44   29   30 ar
    45   29   43 1
    46   30   31 ar
@<TRIPOS>SUBSTRUCTURE
     1 ATP         1 GROUP 0 A     ****
@<TRIPOS>MOLECULE
[[[3,4-dihydroxy-5-(6-imino-1~{H}-purin-9-yl)tetrahydrofuran-2-yl]methoxy-oxido-phosphoryl]oxy-oxido-phosphoryl] hydrogen phosphate
   44    46     1     0     0
SMALL
USER_CHARGES

@<TRIPOS>ATOM
      1 PG          5.1662    1.6312   -1.0005 P.3       1 ATP         1.5257
      2 O1G         6.3042    2.5936   -0.7429 O.co2     1 ATP        -0.8737
      3 O2G         4.8746    1.1283   -2.3968 O.co2     1 ATP        -0.8737
      4 O3G         5.3420    0.3437   -0.0119 O.3       1 ATP        -0.7971
      5 PB          2.9416    3.5685   -0.7969 P.3       1 ATP         1.6824
      6 O1B         3.7724    4.7988   -0.5078 O.co2     1 ATP        -0.8925
      7 O2B         2.3430    3.3313   -2.1654 O.co2     1 ATP        -0.8925
      8 O3B         3.7956    2.2464   -0.3628 O.3       1 ATP        -0.8047
      9 PA          0.4655    4.4361    0.5710 P.3       1 ATP         1.5908
     10 O1A        -0.4570    4.3402   -0.6249 O.co2     1 ATP        -0.8932
     11 O2A         0.9689    5.7789    1.0539 O.co2     1 ATP        -0.8932
     12 O3A         1.7548    3.4645    0.3191 O.3       1 ATP        -0.8088
     13 O5'        -0.2062    3.6557    1.8417 O.3       1 ATP        -0.5646
     14 C5'        -0.8811    2.4285    1.6206 C.3       1 ATP         0.2204
     15 C4'        -0.1994    1.3333    2.4288 C.3       1 ATP         0.0965
     16 O4'        -1.1285    0.2356    2.5840 O.3       1 ATP        -0.3907
     17 C3'         1.0324    0.7610    1.7344 C.3       1 ATP         0.0763
     18 O3'         1.9175    0.2377    2.7247 O.3       1 ATP        -0.5884
     19 C2'         0.4468   -0.3802    0.9263 C.3       1 ATP         0.0784
     20 O2'         1.3993   -1.3703    0.5961 O.3       1 ATP        -0.6085
     21 C1'        -0.6159   -0.9100    1.8769 C.3       1 ATP         0.2186
     22 N9         -1.7127   -1.6108    1.2130 N.pl3     1 ATP        -0.1699
     23 C8         -1.7690   -2.9583    0.9549 C.ar      1 ATP         0.4438
     24 N7         -2.8827   -3.3076    0.3418 N.2       1 ATP        -0.6280
     25 C5         -3.5683   -2.1351    0.2017 C.ar      1 ATP         0.2109
     26 C6         -4.8617   -1.9185   -0.4044 C.ar      1 ATP         0.6180
     27 N6         -5.5166   -2.9094   -0.8993 N.2       1 ATP        -0.8319
     28 N1         -5.1837   -0.5701   -0.3344 N.pl3     1 ATP        -0.8664
     29 C2         -4.3821    0.4180    0.2330 C.ar      1 ATP         0.5952
     30 N3         -3.2117    0.2488    0.7860 N.2       1 ATP        -0.5599
     31 C4         -2.8672   -1.0657    0.7327 C.ar      1 ATP         0.0076
     32 HOG3        4.6766   -0.3755   -0.0591 H         1 ATP         0.4101
     33 H5'1       -1.9256    2.5380    1.9293 H         1 ATP         0.0364
     34 H5'2       -0.8474    2.1930    0.5521 H         1 ATP         0.0364
     35 H4'         0.0403    1.7078    3.4343 H         1 ATP         0.0945
     36 H3'         1.5907    1.4859    1.1353 H         1 ATP         0.0703
     37 HO3'        2.6839   -0.1150    2.2479 H         1 ATP         0.4099
     38 H2'        -0.0017    0.0018    0.0005 H         1 ATP         0.0676
     39 HO2'        2.0953   -0.9375    0.0709 H         1 ATP         0.4291
     40 H1'        -0.1998   -1.6319    2.6178 H         1 ATP         0.0950
     41 H8         -0.9697   -3.6300    1.2371 H         1 ATP         0.1135
     42 HN62       -6.4060   -2.5723   -1.2840 H         1 ATP         0.3588
     43 H2         -4.8409    1.4176    0.1757 H         1 ATP         0.0302
     44 H44        -6.0768   -0.2826   -0.7263 H         1 ATP         0.4215
@<TRIPOS>BOND
     1    1    2 2
     2    1    3 1
     3    1    4 1
     4    1    8 1
     5    4   32 1
     6    5    6 2
     7    5    7 1
     8    5    8 1
     9    5   12 1
    10    9   10 2
    11    9   11 1
    12    9   12 1
    13    9   13 1
    14   13   14 1
    15   14   15 1
    16   14   33 1
    17   14   34 1
    18   15   16 1
    19   15   17 1
    20   15   35 1
    21   16   21 1
    22   17   18 1
    23   17   19 1
    24   17   36 1
    25   18   37 1
    26   19   20 1
    27   19   21 1
    28   19   38 1
    29   20   39 1
    30   21   22 1
    31   21   40 1
    32   22   23 ar
    33   22   31 ar
    34   23   24 ar
    35   23   41 1
    36   24   25 ar
    37   25   26 ar
    38   25   31 ar
    39   26   27 2
    40   26   28 ar
    41   27   42 1
    42   28   29 ar
    43   28   44 1
    44   29   30 ar
    45   29   43 1
    46   30   31 ar
@<TRIPOS>SUBSTRUCTURE
     1 ATP         1 GROUP 0 A     ****
@<TRIPOS>MOLECULE
[[[3,4-dihydroxy-5-(6-imino-1~{H}-purin-9-yl)tetrahydrofuran-2-yl]methoxy-oxido-phosphoryl]oxy-oxido-phosphoryl] hydrogen phosphate
   44    46     1     0     0
SMALL
USER_CHARGES

@<TRIPOS>ATOM
      1 PG         -5.4540    0.6925    2.9708 P.3       1 ATP         1.5257
      2 O1G        -3.9875    0.3333    3.0593 O.co2     1 ATP        -0.8737
      3 O2G        -6.4438   -0.2392    2.3077 O.co2     1 ATP        -0.8737
      4 O3G        -5.9944    1.0399    4.4719 O.3       1 ATP        -0.7971
      5 PB         -5.2540    2.6837    0.7940 P.3       1 ATP         1.6824
      6 O1B        -5.9706    1.7885   -0.1921 O.co2     1 ATP        -0.8925
      7 O2B        -5.4056    4.1876    0.7403 O.co2     1 ATP        -0.8925
      8 O3B        -5.5982    2.1767    2.3073 O.3       1 ATP        -0.8047
      9 PA         -2.5569    2.5166   -0.4115 P.3       1 ATP         1.5908
     10 O1A        -2.3624    3.9982   -0.6506 O.co2     1 ATP        -0.8932
     11 O2A        -2.9102    1.5886   -1.5533 O.co2     1 ATP        -0.8932
     12 O3A        -3.6635    2.3166    0.7740 O.3       1 ATP        -0.8088
     13 O5'        -1.2434    1.9104    0.3515 O.3       1 ATP        -0.5646
     14 C5'        -0.8811    2.4285    1.6206 C.3       1 ATP         0.2204
     15 C4'        -0.1994    1.3333    2.4288 C.3       1 ATP         0.0965
     16 O4'        -1.1285    0.2356    2.5840 O.3       1 ATP        -0.3907
     17 C3'         1.0324    0.7610    1.7344 C.3       1 ATP         0.0763
     18 O3'         1.9175    0.2377    2.7247 O.3       1 ATP        -0.5884
     19 C2'         0.4468   -0.3802    0.9263 C.3       1 ATP         0.0784
     20 O2'         1.3993   -1.3703    0.5961 O.3       1 ATP        -0.6085
     21 C1'        -0.6159   -0.9100    1.8769 C.3       1 ATP         0.2186
     22 N9         -1.7127   -1.6108    1.2130 N.pl3     1 ATP        -0.1699
     23 C8         -2.8662   -1.0361    0.7388 C.ar      1 ATP         0.4438
     24 N7         -3.6774   -1.9166    0.1867 N.2       1 ATP        -0.6280
     25 C5         -3.0159   -3.1045    0.3122 C.ar      1 ATP         0.2109
     26 C6         -3.4377   -4.4169   -0.1199 C.ar      1 ATP         0.6180
     27 N6         -4.5720   -4.5691   -0.7080 N.2       1 ATP        -0.8319
     28 N1         -2.4600   -5.3463    0.2071 N.pl3     1 ATP        -0.8664
     29 C2         -1.2595   -5.0554    0.8515 C.ar      1 ATP         0.5952
     30 N3         -0.8555   -3.8803    1.2516 N.2       1 ATP        -0.5599
     31 C4         -1.7946   -2.9457    0.9448 C.ar      1 ATP         0.0076
     32 HOG3       -6.9354    1.2938    4.5822 H         1 ATP         0.4101
     33 H5'1       -0.2033    3.2760    1.4769 H         1 ATP         0.0364
     34 H5'2       -1.7841    2.7762    2.1323 H         1 ATP         0.0364
     35 H4'         0.0403    1.7078    3.4343 H         1 ATP         0.0945
     36 H3'         1.5907    1.4859    1.1353 H         1 ATP         0.0703
     37 HO3'        2.6839   -0.1150    2.2479 H         1 ATP         0.4099
     38 H2'        -0.0017    0.0018    0.0005 H         1 ATP         0.0676
     39 HO2'        2.0953   -0.9375    0.0709 H         1 ATP         0.4291
     40 H1'        -0.1998   -1.6319    2.6178 H         1 ATP         0.0950
     41 H8         -3.0558    0.0252    0.8256 H         1 ATP         0.1135
     42 HN62       -4.7047   -5.5592   -0.9421 H         1 ATP         0.3588
     43 H2         -0.6372   -5.9505    1.0077 H         1 ATP         0.0302
     44 H44        -2.6338   -6.3155   -0.0469 H         1 ATP         0.4215
@<TRIPOS>BOND
     1    1    2 2
     2    1    3 1
     3    1    4 1
     4    1    8 1
     5    4   32 1
     6    5    6 2
     7    5    7 1
     8    5    8 1
     9    5   12 1
    10    9   10 2
    11    9   11 1
    12    9   12 1
    13    9   13 1
    14   13   14 1
    15   14   15 1
    16   14   33 1
    17   14   34 1
    18   15   16 1
    19   15   17 1
    20   15   35 1
    21   16   21 1
    22   17   18 1
    23   17   19 1
    24   17   36 1
    25   18   37 1
    26   19   20 1
    27   19   21 1
    28   19   38 1
    29   20   39 1
    30   21   22 1
    31   21   40 1
    32   22   23 ar
    33   22   31 ar
    34   23   24 ar
    35   23   41 1
    36   24   25 ar
    37   25   26 ar
    38   25   31 ar
    39   26   27 2
    40   26   28 ar
    41   27   42 1
    42   28   29 ar
    43   28   44 1
    44   29   30 ar
    45   29   43 1
    46   30   31 ar
@<TRIPOS>SUBSTRUCTURE
     1 ATP         1 GROUP 0 A     ****
@<TRIPOS>MOLECULE
[[[3,4-dihydroxy-5-(6-imino-1~{H}-purin-9-yl)tetrahydrofuran-2-yl]methoxy-oxido-phosphoryl]oxy-oxido-phosphoryl] hydrogen phosphate
   44    46     1     0     0
SMALL
USER_CHARGES

@<TRIPOS>ATOM
      1 PG          6.6797    6.5569    2.9300 P.3       1 ATP         1.5257
      2 O1G         7.5793    6.0501    1.8249 O.co2     1 ATP        -0.8737
      3 O2G         7.1744    6.6435    4.3568 O.co2     1 ATP        -0.8737
      4 O3G         6.0956    8.0181    2.4943 O.3       1 ATP        -0.7971
      5 PB          5.0035    4.1396    3.2305 P.3       1 ATP         1.6824
      6 O1B         5.5827    3.8156    4.5895 O.co2     1 ATP        -0.8925
      7 O2B         3.5626    3.8227    2.8973 O.co2     1 ATP        -0.8925
      8 O3B         5.2817    5.7151    2.9051 O.3       1 ATP        -0.8047
      9 PA          6.2528    1.9160    1.7305 P.3       1 ATP         1.5908
     10 O1A         6.7152    1.2121    2.9879 O.co2     1 ATP        -0.8932
     11 O2A         7.0781    1.8581    0.4635 O.co2     1 ATP        -0.8932
     12 O3A         5.9626    3.4848    2.0832 O.3       1 ATP        -0.8088
     13 O5'         4.7294    1.4427    1.3696 O.3       1 ATP        -0.5646
     14 C5'         4.0922    1.9801    0.2227 C.3       1 ATP         0.2204
     15 C4'         2.5944    2.0310    0.4653 C.3       1 ATP         0.0965
     16 O4'         1.9327    2.5740   -0.6889 O.3       1 ATP        -0.3907
     17 C3'         1.9685    0.6634    0.6767 C.3       1 ATP         0.0763
     18 O3'         2.1425    0.1975    1.9977 O.3       1 ATP        -0.5884
     19 C2'         0.5176    0.9128    0.3099 C.3       1 ATP         0.0784
     20 O2'        -0.2103    1.4454    1.4152 O.3       1 ATP        -0.6085
     21 C1'         0.6219    1.9765   -0.7844 C.3       1 ATP         0.2186
     22 N9          0.4237    1.4496   -2.1357 N.pl3     1 ATP        -0.1699
     23 C8          1.4069    0.9710   -2.9662 C.ar      1 ATP         0.4438
     24 N7          0.9316    0.5623   -4.1260 N.2       1 ATP        -0.6280
     25 C5         -0.4120    0.7884   -4.0344 C.ar      1 ATP         0.2109
     26 C6         -1.4353    0.5283   -5.0204 C.ar      1 ATP         0.6180
     27 N6         -1.1199    0.0176   -6.1586 N.2       1 ATP        -0.8319
     28 N1         -2.6704    0.9095   -4.5147 N.pl3     1 ATP        -0.8664
     29 C2         -2.8863    1.4571   -3.2520 C.ar      1 ATP         0.5952
     30 N3         -1.9805    1.7017   -2.3442 N.2       1 ATP        -0.5599
     31 C4         -0.7561    1.3381   -2.8112 C.ar      1 ATP         0.0076
     32 HOG3        5.4908    8.4822    3.1116 H         1 ATP         0.4101
     33 H5'1        4.4843    2.9854    0.0380 H         1 ATP         0.0364
     34 H5'2        4.3191    1.3446   -0.6392 H         1 ATP         0.0364
     35 H4'         2.3752    2.7029    1.3156 H         1 ATP         0.0945
     36 H3'         2.4336   -0.1217   -0.0015 H         1 ATP         0.0703
     37 HO3'        1.7160   -0.6716    2.0397 H         1 ATP         0.4099
     38 H2'         0.0316    0.0155   -0.0339 H         1 ATP         0.0676
     39 HO2'       -1.1270    1.5823    1.1180 H         1 ATP         0.4291
     40 H1'        -0.1474    2.7798   -0.6651 H         1 ATP         0.0950
     41 H8          2.4466    0.9468   -2.6694 H         1 ATP         0.1135
     42 HN62       -1.9661   -0.0965   -6.7275 H         1 ATP         0.3588
     43 H2         -3.9481    1.6825   -3.0660 H         1 ATP         0.0302
     44 H44        -3.4814    0.7753   -5.1133 H         1 ATP         0.4215
@<TRIPOS>BOND
     1    1    2 2
     2    1    3 1
     3    1    4 1
     4    1    8 1
     5    4   32 1
     6    5    6 2
     7    5    7 1
     8    5    8 1
     9    5   12 1
    10    9   10 2
    11    9   11 1
    12    9   12 1
    13    9   13 1
    14   13   14 1
    15   14   15 1
    16   14   33 1
    17   14   34 1
    18   15   16 1
    19   15   17 1
    20   15   35 1
    21   16   21 1
    22   17   18 1
    23   17   19 1
    24   17   36 1
    25   18   37 1
    26   19   20 1
    27   19   21 1
    28   19   38 1
    29   20   39 1
    30   21   22 1
    31   21   40 1
    32   22   23 ar
    33   22   31 ar
    34   23   24 ar
    35   23   41 1
    36   24   25 ar
    37   25   26 ar
    38   25   31 ar
    39   26   27 2
    40   26   28 ar
    41   27   42 1
    42   28   29 ar
    43   28   44 1
    44   29   30 ar
    45   29   43 1
    46   30   31 ar
@<TRIPOS>SUBSTRUCTURE
     1 ATP         1 GROUP 0 A     ****
@<TRIPOS>MOLECULE
[[[3,4-dihydroxy-5-(6-imino-1~{H}-purin-9-yl)tetrahydrofuran-2-yl]methoxy-oxido-phosphoryl]oxy-oxido-phosphoryl] hydrogen phosphate
   44    46     1     0     0
SMALL
USER_CHARGES

@<TRIPOS>ATOM
      1 PG         -2.7910    6.6689    5.2734 P.3       1 ATP         1.5257
      2 O1G        -3.5681    6.7315    3.9774 O.co2     1 ATP        -0.8737
      3 O2G        -2.0348    7.8747    5.7853 O.co2     1 ATP        -0.8737
      4 O3G        -3.7909    6.1449    6.4530 O.3       1 ATP        -0.7971
      5 PB         -0.4699    5.1288    4.2813 P.3       1 ATP         1.6824
      6 O1B         0.4642    6.3115    4.4085 O.co2     1 ATP        -0.8925
      7 O2B         0.0189    3.7162    4.5121 O.co2     1 ATP        -0.8925
      8 O3B        -1.7772    5.3908    5.2236 O.3       1 ATP        -0.8047
      9 PA         -0.5790    5.0299    1.3261 P.3       1 ATP         1.5908
     10 O1A         0.5634    6.0092    1.1642 O.co2     1 ATP        -0.8932
     11 O2A        -1.7210    5.0027    0.3337 O.co2     1 ATP        -0.8932
     12 O3A        -1.2057    5.1972    2.8258 O.3       1 ATP        -0.8088
     13 O5'         0.0178    3.5131    1.4595 O.3       1 ATP        -0.5646
     14 C5'        -0.8811    2.4285    1.6206 C.3       1 ATP         0.2204
     15 C4'        -0.1994    1.3333    2.4288 C.3       1 ATP         0.0965
     16 O4'        -1.1285    0.2356    2.5840 O.3       1 ATP        -0.3907
     17 C3'         1.0324    0.7610    1.7344 C.3       1 ATP         0.0763
     18 O3'         1.9175    0.2377    2.7247 O.3       1 ATP        -0.5884
     19 C2'         0.4468   -0.3802    0.9263 C.3       1 ATP         0.0784
     20 O2'         1.3993   -1.3703    0.5961 O.3       1 ATP        -0.6085
     21 C1'        -0.6159   -0.9100    1.8769 C.3       1 ATP         0.2186
     22 N9         -1.7127   -1.6108    1.2130 N.pl3     1 ATP        -0.1699
     23 C8         -3.0370   -1.2489    1.2455 C.ar      1 ATP         0.4438
     24 N7         -3.8008   -2.0709    0.5534 N.2       1 ATP        -0.6280
     25 C5         -2.9295   -2.9976    0.0567 C.ar      1 ATP         0.2109
     26 C6         -3.2152   -4.1411   -0.7786 C.ar      1 ATP         0.6180
     27 N6         -4.4238   -4.3865   -1.1456 N.2       1 ATP        -0.8319
     28 N1         -2.0349   -4.8186   -1.0521 N.pl3     1 ATP        -0.8664
     29 C2         -0.7728   -4.4501   -0.5916 C.ar      1 ATP         0.5952
     30 N3         -0.4885   -3.4234    0.1630 N.2       1 ATP        -0.5599
     31 C4         -1.6274   -2.7377    0.4492 C.ar      1 ATP         0.0076
     32 HOG3       -3.4324    6.0501    7.3611 H         1 ATP         0.4101
     33 H5'1       -1.7771    2.7849    2.1387 H         1 ATP         0.0364
     34 H5'2       -1.1654    2.0541    0.6320 H         1 ATP         0.0364
     35 H4'         0.0403    1.7078    3.4343 H         1 ATP         0.0945
     36 H3'         1.5907    1.4859    1.1353 H         1 ATP         0.0703
     37 HO3'        2.1521    0.9800    3.3017 H         1 ATP         0.4099
     38 H2'        -0.0017    0.0018    0.0005 H         1 ATP         0.0676
     39 HO2'        2.0953   -0.9375    0.0709 H         1 ATP         0.4291
     40 H1'        -0.1998   -1.6319    2.6178 H         1 ATP         0.0950
     41 H8         -3.3806   -0.3795    1.7893 H         1 ATP         0.1135
     42 HN62       -4.4384   -5.2300   -1.7295 H         1 ATP         0.3588
     43 H2          0.0180   -5.1355   -0.9348 H         1 ATP         0.0302
     44 H44        -2.0977   -5.6477   -1.6374 H         1 ATP         0.4215
@<TRIPOS>BOND
     1    1    2 2
     2    1    3 1
     3    1    4 1
     4    1    8 1
     5    4   32 1
     6    5    6 2
     7    5    7 1
     8    5    8 1
     9    5   12 1
    10    9   10 2
    11    9   11 1
    12    9   12 1
    13    9   13 1
    14   13   14 1
    15   14   15 1
    16   14   33 1
    17   14   34 1
    18   15   16 1
    19   15   17 1
    20   15   35 1
    21   16   21 1
    22   17   18 1
    23   17   19 1
    24   17   36 1
    25   18   37 1
    26   19   20 1
    27   19   21 1
    28   19   38 1
    29   20   39 1
    30   21   22 1
    31   21   40 1
    32   22   23 ar
    33   22   31 ar
    34   23   24 ar
    35   23   41 1
    36   24   25 ar
    37   25   26 ar
    38   25   31 ar
    39   26   27 2
    40   26   28 ar
    41   27   42 1
    42   28   29 ar
    43   28   44 1
    44   29   30 ar
    45   29   43 1
    46   30   31 ar
@<TRIPOS>SUBSTRUCTURE
     1 ATP         1 GROUP 0 A     ****
@<TRIPOS>MOLECULE
[[[3,4-dihydroxy-5-(6-imino-1~{H}-purin-9-yl)tetrahydrofuran-2-yl]methoxy-oxido-phosphoryl]oxy-oxido-phosphoryl] hydrogen phosphate
   44    46     1     0     0
SMALL
USER_CHARGES

@<TRIPOS>ATOM
      1 PG         -6.1530    4.0317   -2.0824 P.3       1 ATP         1.5257
      2 O1G        -6.8421    2.7353   -2.4456 O.co2     1 ATP        -0.8737
      3 O2G        -5.4490    4.8591   -3.1348 O.co2     1 ATP        -0.8737
      4 O3G        -7.2228    4.9868   -1.3020 O.3       1 ATP        -0.7971
      5 PB         -5.3893    3.0598    0.6038 P.3       1 ATP         1.6824
      6 O1B        -6.3064    3.9533    1.4089 O.co2     1 ATP        -0.8925
      7 O2B        -5.7115    1.5980    0.3875 O.co2     1 ATP        -0.8925
      8 O3B        -5.1213    3.7571   -0.8479 O.3       1 ATP        -0.8047
      9 PA         -3.2890    2.7005    2.6567 P.3       1 ATP         1.5908
     10 O1A        -3.3524    1.1904    2.7326 O.co2     1 ATP        -0.8932
     11 O2A        -3.9196    3.5563    3.7336 O.co2     1 ATP        -0.8932
     12 O3A        -3.8782    3.1790    1.2098 O.3       1 ATP        -0.8088
     13 O5'        -1.7336    3.1724    2.4750 O.3       1 ATP        -0.5646
     14 C5'        -0.8811    2.4285    1.6206 C.3       1 ATP         0.2204
     15 C4'        -0.1994    1.3333    2.4288 C.3       1 ATP         0.0965
     16 O4'        -1.1285    0.2356    2.5840 O.3       1 ATP        -0.3907
     17 C3'         1.0324    0.7610    1.7344 C.3       1 ATP         0.0763
     18 O3'         1.9175    0.2377    2.7247 O.3       1 ATP        -0.5884
     19 C2'         0.4468   -0.3802    0.9263 C.3       1 ATP         0.0784
     20 O2'         1.3993   -1.3703    0.5961 O.3       1 ATP        -0.6085
     21 C1'        -0.6159   -0.9100    1.8769 C.3       1 ATP         0.2186
     22 N9         -1.7127   -1.6108    1.2130 N.pl3     1 ATP        -0.1699
     23 C8         -2.5485   -1.0808    0.2609 C.ar      1 ATP         0.4438
     24 N7         -3.4476   -1.9486   -0.1593 N.2       1 ATP        -0.6280
     25 C5         -3.1762   -3.0816    0.5530 C.ar      1 ATP         0.2109
     26 C6         -3.8510   -4.3579    0.5006 C.ar      1 ATP         0.6180
     27 N6         -4.8468   -4.5293   -0.2961 N.2       1 ATP        -0.8319
     28 N1         -3.2499   -5.2342    1.3937 N.pl3     1 ATP        -0.8664
     29 C2         -2.1646   -4.9275    2.2116 C.ar      1 ATP         0.5952
     30 N3         -1.5382   -3.7840    2.2778 N.2       1 ATP        -0.5599
     31 C4         -2.1054   -2.9018    1.4120 C.ar      1 ATP         0.0076
     32 HOG3       -6.9248    5.8708   -0.9986 H         1 ATP         0.4101
     33 H5'1       -1.4800    1.9927    0.8146 H         1 ATP         0.0364
     34 H5'2       -0.1367    3.1040    1.1872 H         1 ATP         0.0364
     35 H4'         0.0403    1.7078    3.4343 H         1 ATP         0.0945
     36 H3'         1.5907    1.4859    1.1353 H         1 ATP         0.0703
     37 HO3'        2.6839   -0.1150    2.2479 H         1 ATP         0.4099
     38 H2'        -0.0017    0.0018    0.0005 H         1 ATP         0.0676
     39 HO2'        2.0953   -0.9375    0.0709 H         1 ATP         0.4291
     40 H1'        -0.1998   -1.6319    2.6178 H         1 ATP         0.0950
     41 H8         -2.4515   -0.0599   -0.0829 H         1 ATP         0.1135
     42 HN62       -5.1990   -5.4882   -0.2005 H         1 ATP         0.3588
     43 H2         -1.8555   -5.7783    2.8388 H         1 ATP         0.0302
     44 H44        -3.6312   -6.1750    1.4526 H         1 ATP         0.4215
@<TRIPOS>BOND
     1    1    2 2
     2    1    3 1
     3    1    4 1
     4    1    8 1
     5    4   32 1
     6    5    6 2
     7    5    7 1
     8    5    8 1
     9    5   12 1
    10    9   10 2
    11    9   11 1
    12    9   12 1
    13    9   13 1
    14   13   14 1
    15   14   15 1
    16   14   33 1
    17   14   34 1
    18   15   16 1
    19   15   17 1
    20   15   35 1
    21   16   21 1
    22   17   18 1
    23   17   19 1
    24   17   36 1
    25   18   37 1
    26   19   20 1
    27   19   21 1
    28   19   38 1
    29   20   39 1
    30   21   22 1
    31   21   40 1
    32   22   23 ar
    33   22   31 ar
    34   23   24 ar
    35   23   41 1
    36   24   25 ar
    37   25   26 ar
    38   25   31 ar
    39   26   27 2
    40   26   28 ar
    41   27   42 1
    42   28   29 ar
    43   28   44 1
    44   29   30 ar
    45   29   43 1
    46   30   31 ar
@<TRIPOS>SUBSTRUCTURE
     1 ATP         1 GROUP 0 A     ****
@<TRIPOS>MOLECULE
[[[3,4-dihydroxy-5-(6-imino-1~{H}-purin-9-yl)tetrahydrofuran-2-yl]methoxy-oxido-phosphoryl]oxy-oxido-phosphoryl] hydrogen phosphate
   44    46     1     0     0
SMALL
USER_CHARGES

@<TRIPOS>ATOM
      1 PG          2.2507    2.6928    7.4685 P.3       1 ATP         1.5257
      2 O1G         3.5227    3.4806    7.2475 O.co2     1 ATP        -0.8737
      3 O2G         2.2963    1.2113    7.7696 O.co2     1 ATP        -0.8737
      4 O3G         1.3787    3.4321    8.6342 O.3       1 ATP        -0.7971
      5 PB          0.7057    4.3464    5.5653 P.3       1 ATP         1.6824
      6 O1B        -0.1876    5.0326    6.5745 O.co2     1 ATP        -0.8925
      7 O2B         1.8741    5.0699    4.9336 O.co2     1 ATP        -0.8925
      8 O3B         1.2436    2.9459    6.2093 O.3       1 ATP        -0.8047
      9 PA         -1.1369    4.4808    3.2540 P.3       1 ATP         1.5908
     10 O1A        -0.2214    5.2474    2.3242 O.co2     1 ATP        -0.8932
     11 O2A        -2.2827    5.1751    3.9574 O.co2     1 ATP        -0.8932
     12 O3A        -0.2270    3.7226    4.3797 O.3       1 ATP        -0.8088
     13 O5'        -1.7336    3.1724    2.4750 O.3       1 ATP        -0.5646
     14 C5'        -0.8811    2.4285    1.6206 C.3       1 ATP         0.2204
     15 C4'        -0.1994    1.3333    2.4288 C.3       1 ATP         0.0965
     16 O4'        -1.1285    0.2356    2.5840 O.3       1 ATP        -0.3907
     17 C3'         1.0324    0.7610    1.7344 C.3       1 ATP         0.0763
     18 O3'         1.9175    0.2377    2.7247 O.3       1 ATP        -0.5884
     19 C2'         0.4468   -0.3802    0.9263 C.3       1 ATP         0.0784
     20 O2'         1.3993   -1.3703    0.5961 O.3       1 ATP        -0.6085
     21 C1'        -0.6159   -0.9100    1.8769 C.3       1 ATP         0.2186
     22 N9         -1.7127   -1.6108    1.2130 N.pl3     1 ATP        -0.1699
     23 C8         -1.7690   -2.9583    0.9549 C.ar      1 ATP         0.4438
     24 N7         -2.8827   -3.3076    0.3418 N.2       1 ATP        -0.6280
     25 C5         -3.5683   -2.1351    0.2017 C.ar      1 ATP         0.2109
     26 C6         -4.8617   -1.9185   -0.4044 C.ar      1 ATP         0.6180
     27 N6         -5.5166   -2.9094   -0.8993 N.2       1 ATP        -0.8319
     28 N1         -5.1837   -0.5701   -0.3344 N.pl3     1 ATP        -0.8664
     29 C2         -4.3821    0.4180    0.2330 C.ar      1 ATP         0.5952
     30 N3         -3.2117    0.2488    0.7860 N.2       1 ATP        -0.5599
     31 C4         -2.8672   -1.0657    0.7327 C.ar      1 ATP         0.0076
     32 HOG3        0.5185    3.0388    8.8942 H         1 ATP         0.4101
     33 H5'1       -1.4800    1.9927    0.8146 H         1 ATP         0.0364
     34 H5'2       -0.1367    3.1040    1.1872 H         1 ATP         0.0364
     35 H4'         0.0403    1.7078    3.4343 H         1 ATP         0.0945
     36 H3'         1.5907    1.4859    1.1353 H         1 ATP         0.0703
     37 HO3'        2.1521    0.9800    3.3017 H         1 ATP         0.4099
     38 H2'        -0.0017    0.0018    0.0005 H         1 ATP         0.0676
     39 HO2'        0.9369   -2.0558    0.0825 H         1 ATP         0.4291
     40 H1'        -0.1998   -1.6319    2.6178 H         1 ATP         0.0950
     41 H8         -0.9697   -3.6300    1.2371 H         1 ATP         0.1135
     42 HN62       -6.4060   -2.5723   -1.2840 H         1 ATP         0.3588
     43 H2         -4.8409    1.4176    0.1757 H         1 ATP         0.0302
     44 H44        -6.0768   -0.2826   -0.7263 H         1 ATP         0.4215
@<TRIPOS>BOND
     1    1    2 2
     2    1    3 1
     3    1    4 1
     4    1    8 1
     5    4   32 1
     6    5    6 2
     7    5    7 1
     8    5    8 1
     9    5   12 1
    10    9   10 2
    11    9   11 1
    12    9   12 1
    13    9   13 1
    14   13   14 1
    15   14   15 1
    16   14   33 1
    17   14   34 1
    18   15   16 1
    19   15   17 1
    20   15   35 1
    21   16   21 1
    22   17   18 1
    23   17   19 1
    24   17   36 1
    25   18   37 1
    26   19   20 1
    27   19   21 1
    28   19   38 1
    29   20   39 1
    30   21   22 1
    31   21   40 1
    32   22   23 ar
    33   22   31 ar
    34   23   24 ar
    35   23   41 1
    36   24   25 ar
    37   25   26 ar
    38   25   31 ar
    39   26   27 2
    40   26   28 ar
    41   27   42 1
    42   28   29 ar
    43   28   44 1
    44   29   30 ar
    45   29   43 1
    46   30   31 ar
@<TRIPOS>SUBSTRUCTURE
     1 ATP         1 GROUP 0 A     ****
@<TRIPOS>MOLECULE
[[[3,4-dihydroxy-5-(6-imino-1~{H}-purin-9-yl)tetrahydrofuran-2-yl]methoxy-oxido-phosphoryl]oxy-oxido-phosphoryl] hydrogen phosphate
   44    46     1     0     0
SMALL
USER_CHARGES

@<TRIPOS>ATOM
      1 PG          4.3014    6.8524    4.2830 P.3       1 ATP         1.5257
      2 O1G         2.9146    7.3855    4.5660 O.co2     1 ATP        -0.8737
      3 O2G         5.2815    7.6421    3.4444 O.co2     1 ATP        -0.8737
      4 O3G         5.0151    6.4830    5.7043 O.3       1 ATP        -0.7971
      5 PB          3.3892    4.0397    4.2570 P.3       1 ATP         1.6824
      6 O1B         4.0695    3.5962    5.5330 O.co2     1 ATP        -0.8925
      7 O2B         1.9019    4.3114    4.2159 O.co2     1 ATP        -0.8925
      8 O3B         4.1761    5.3446    3.6708 O.3       1 ATP        -0.8047
      9 PA          5.2202    2.4549    2.5568 P.3       1 ATP         1.5908
     10 O1A         5.8669    1.6548    3.6666 O.co2     1 ATP        -0.8932
     11 O2A         5.9473    3.6171    1.9161 O.co2     1 ATP        -0.8932
     12 O3A         3.7615    2.9821    3.0706 O.3       1 ATP        -0.8088
     13 O5'         4.7294    1.4427    1.3696 O.3       1 ATP        -0.5646
     14 C5'         4.0922    1.9801    0.2227 C.3       1 ATP         0.2204
     15 C4'         2.5944    2.0310    0.4653 C.3       1 ATP         0.0965
     16 O4'         1.9327    2.5740   -0.6889 O.3       1 ATP        -0.3907
     17 C3'         1.9685    0.6634    0.6767 C.3       1 ATP         0.0763
     18 O3'         2.1425    0.1975    1.9977 O.3       1 ATP        -0.5884
     19 C2'         0.5176    0.9128    0.3099 C.3       1 ATP         0.0784
     20 O2'        -0.2103    1.4454    1.4152 O.3       1 ATP        -0.6085
     21 C1'         0.6219    1.9765   -0.7844 C.3       1 ATP         0.2186
     22 N9          0.4237    1.4496   -2.1357 N.pl3     1 ATP        -0.1699
     23 C8          1.4069    0.9710   -2.9662 C.ar      1 ATP         0.4438
     24 N7          0.9316    0.5623   -4.1260 N.2       1 ATP        -0.6280
     25 C5         -0.4120    0.7884   -4.0344 C.ar      1 ATP         0.2109
     26 C6         -1.4353    0.5283   -5.0204 C.ar      1 ATP         0.6180
     27 N6         -1.1199    0.0176   -6.1586 N.2       1 ATP        -0.8319
     28 N1         -2.6704    0.9095   -4.5147 N.pl3     1 ATP        -0.8664
     29 C2         -2.8863    1.4571   -3.2520 C.ar      1 ATP         0.5952
     30 N3         -1.9805    1.7017   -2.3442 N.2       1 ATP        -0.5599
     31 C4         -0.7561    1.3381   -2.8112 C.ar      1 ATP         0.0076
     32 HOG3        5.9271    6.1220    5.6889 H         1 ATP         0.4101
     33 H5'1        4.4843    2.9854    0.0380 H         1 ATP         0.0364
     34 H5'2        4.3191    1.3446   -0.6392 H         1 ATP         0.0364
     35 H4'         2.3752    2.7029    1.3156 H         1 ATP         0.0945
     36 H3'         2.4336   -0.1217   -0.0015 H         1 ATP         0.0703
     37 HO3'        3.0987    0.1465    2.1461 H         1 ATP         0.4099
     38 H2'         0.0316    0.0155   -0.0339 H         1 ATP         0.0676
     39 HO2'       -0.1608    0.7921    2.1351 H         1 ATP         0.4291
     40 H1'        -0.1474    2.7798   -0.6651 H         1 ATP         0.0950
     41 H8          2.4466    0.9468   -2.6694 H         1 ATP         0.1135
     42 HN62       -1.9661   -0.0965   -6.7275 H         1 ATP         0.3588
     43 H2         -3.9481    1.6825   -3.0660 H         1 ATP         0.0302
     44 H44        -3.4814    0.7753   -5.1133 H         1 ATP         0.4215
@<TRIPOS>BOND
     1    1    2 2
     2    1    3 1
     3    1    4 1
     4    1    8 1
     5    4   32 1
     6    5    6 2
     7    5    7 1
     8    5    8 1
     9    5   12 1
    10    9   10 2
    11    9   11 1
    12    9   12 1
    13    9   13 1
    14   13   14 1
    15   14   15 1
    16   14   33 1
    17   14   34 1
    18   15   16 1
    19   15   17 1
    20   15   35 1
    21   16   21 1
    22   17   18 1
    23   17   19 1
    24   17   36 1
    25   18   37 1
    26   19   20 1
    27   19   21 1
    28   19   38 1
    29   20   39 1
    30   21   22 1
    31   21   40 1
    32   22   23 ar
    33   22   31 ar
    34   23   24 ar
    35   23   41 1
    36   24   25 ar
    37   25   26 ar
    38   25   31 ar
    39   26   27 2
    40   26   28 ar
    41   27   42 1
    42   28   29 ar
    43   28   44 1
    44   29   30 ar
    45   29   43 1
    46   30   31 ar
@<TRIPOS>SUBSTRUCTURE
     1 ATP         1 GROUP 0 A     ****
@<TRIPOS>MOLECULE
[[[3,4-dihydroxy-5-(6-imino-1~{H}-purin-9-yl)tetrahydrofuran-2-yl]methoxy-oxido-phosphoryl]oxy-oxido-phosphoryl] hydrogen phosphate
   44    46     1     0     0
SMALL
USER_CHARGES

@<TRIPOS>ATOM
      1 PG          4.1902    4.4144   -5.5974 P.3       1 ATP         1.5257
      2 O1G         4.4923    3.2485   -6.5123 O.co2     1 ATP        -0.8737
      3 O2G         4.7403    5.7931   -5.8876 O.co2     1 ATP        -0.8737
      4 O3G         2.5711    4.5289   -5.4205 O.3       1 ATP        -0.7971
      5 PB          6.0370    3.6974   -3.4022 P.3       1 ATP         1.6824
      6 O1B         6.5923    2.4300   -4.0127 O.co2     1 ATP        -0.8925
      7 O2B         6.8409    4.9784   -3.3897 O.co2     1 ATP        -0.8925
      8 O3B         4.5769    4.0021   -4.0663 O.3       1 ATP        -0.8047
      9 PA          4.7368    4.3145   -0.8169 P.3       1 ATP         1.5908
     10 O1A         3.3493    4.5804   -1.3596 O.co2     1 ATP        -0.8932
     11 O2A         5.6410    5.4580   -0.4113 O.co2     1 ATP        -0.8932
     12 O3A         5.5450    3.3729   -1.8798 O.3       1 ATP        -0.8088
     13 O5'         4.6405    3.2699    0.4378 O.3       1 ATP        -0.5646
     14 C5'         4.0922    1.9801    0.2227 C.3       1 ATP         0.2204
     15 C4'         2.5944    2.0310    0.4653 C.3       1 ATP         0.0965
     16 O4'         1.9327    2.5740   -0.6889 O.3       1 ATP        -0.3907
     17 C3'         1.9685    0.6634    0.6767 C.3       1 ATP         0.0763
     18 O3'         2.1425    0.1975    1.9977 O.3       1 ATP        -0.5884
     19 C2'         0.5176    0.9128    0.3099 C.3       1 ATP         0.0784
     20 O2'        -0.2103    1.4454    1.4152 O.3       1 ATP        -0.6085
     21 C1'         0.6219    1.9765   -0.7844 C.3       1 ATP         0.2186
     22 N9          0.4237    1.4496   -2.1357 N.pl3     1 ATP        -0.1699
     23 C8          1.4069    0.9710   -2.9662 C.ar      1 ATP         0.4438
     24 N7          0.9316    0.5623   -4.1260 N.2       1 ATP        -0.6280
     25 C5         -0.4120    0.7884   -4.0344 C.ar      1 ATP         0.2109
     26 C6         -1.4353    0.5283   -5.0204 C.ar      1 ATP         0.6180
     27 N6         -1.1199    0.0176   -6.1586 N.2       1 ATP        -0.8319
     28 N1         -2.6704    0.9095   -4.5147 N.pl3     1 ATP        -0.8664
     29 C2         -2.8863    1.4571   -3.2520 C.ar      1 ATP         0.5952
     30 N3         -1.9805    1.7017   -2.3442 N.2       1 ATP        -0.5599
     31 C4         -0.7561    1.3381   -2.8112 C.ar      1 ATP         0.0076
     32 HOG3        2.2129    5.2427   -4.8509 H         1 ATP         0.4101
     33 H5'1        4.3028    1.6728   -0.8066 H         1 ATP         0.0364
     34 H5'2        4.5677    1.2738    0.9106 H         1 ATP         0.0364
     35 H4'         2.3752    2.7029    1.3156 H         1 ATP         0.0945
     36 H3'         2.4336   -0.1217   -0.0015 H         1 ATP         0.0703
     37 HO3'        1.7160   -0.6716    2.0397 H         1 ATP         0.4099
     38 H2'         0.0316    0.0155   -0.0339 H         1 ATP         0.0676
     39 HO2'       -1.1270    1.5823    1.1180 H         1 ATP         0.4291
     40 H1'        -0.1474    2.7798   -0.6651 H         1 ATP         0.0950
     41 H8          2.4466    0.9468   -2.6694 H         1 ATP         0.1135
     42 HN62       -1.9661   -0.0965   -6.7275 H         1 ATP         0.3588
     43 H2         -3.9481    1.6825   -3.0660 H         1 ATP         0.0302
     44 H44        -3.4814    0.7753   -5.1133 H         1 ATP         0.4215
@<TRIPOS>BOND
     1    1    2 2
     2    1    3 1
     3    1    4 1
     4    1    8 1
     5    4   32 1
     6    5    6 2
     7    5    7 1
     8    5    8 1
     9    5   12 1
    10    9   10 2
    11    9   11 1
    12    9   12 1
    13    9   13 1
    14   13   14 1
    15   14   15 1
    16   14   33 1
    17   14   34 1
    18   15   16 1
    19   15   17 1
    20   15   35 1
    21   16   21 1
    22   17   18 1
    23   17   19 1
    24   17   36 1
    25   18   37 1
    26   19   20 1
    27   19   21 1
    28   19   38 1
    29   20   39 1
    30   21   22 1
    31   21   40 1
    32   22   23 ar
    33   22   31 ar
    34   23   24 ar
    35   23   41 1
    36   24   25 ar
    37   25   26 ar
    38   25   31 ar
    39   26   27 2
    40   26   28 ar
    41   27   42 1
    42   28   29 ar
    43   28   44 1
    44   29   30 ar
    45   29   43 1
    46   30   31 ar
@<TRIPOS>SUBSTRUCTURE
     1 ATP         1 GROUP 0 A     ****
@<TRIPOS>MOLECULE
[[[3,4-dihydroxy-5-(6-imino-1~{H}-purin-9-yl)tetrahydrofuran-2-yl]methoxy-oxido-phosphoryl]oxy-oxido-phosphoryl] hydrogen phosphate
   44    46     1     0     0
SMALL
USER_CHARGES

@<TRIPOS>ATOM
      1 PG          4.1303    3.6413    7.0918 P.3       1 ATP         1.5257
      2 O1G         5.0144    2.6494    7.8141 O.co2     1 ATP        -0.8737
      3 O2G         2.7300    3.9354    7.5821 O.co2     1 ATP        -0.8737
      4 O3G         4.9389    5.0532    6.9550 O.3       1 ATP        -0.7971
      5 PB          3.3892    4.0397    4.2570 P.3       1 ATP         1.6824
      6 O1B         1.8881    4.0525    4.4417 O.co2     1 ATP        -0.8925
      7 O2B         4.1610    5.3198    4.0258 O.co2     1 ATP        -0.8925
      8 O3B         4.0640    3.2409    5.5109 O.3       1 ATP        -0.8047
      9 PA          5.2202    2.4549    2.5568 P.3       1 ATP         1.5908
     10 O1A         5.8669    1.6548    3.6666 O.co2     1 ATP        -0.8932
     11 O2A         5.9473    3.6171    1.9161 O.co2     1 ATP        -0.8932
     12 O3A         3.7615    2.9821    3.0706 O.3       1 ATP        -0.8088
     13 O5'         4.7294    1.4427    1.3696 O.3       1 ATP        -0.5646
     14 C5'         4.0922    1.9801    0.2227 C.3       1 ATP         0.2204
     15 C4'         2.5944    2.0310    0.4653 C.3       1 ATP         0.0965
     16 O4'         1.9327    2.5740   -0.6889 O.3       1 ATP        -0.3907
     17 C3'         1.9685    0.6634    0.6767 C.3       1 ATP         0.0763
     18 O3'         2.1425    0.1975    1.9977 O.3       1 ATP        -0.5884
     19 C2'         0.5176    0.9128    0.3099 C.3       1 ATP         0.0784
     20 O2'        -0.2103    1.4454    1.4152 O.3       1 ATP        -0.6085
     21 C1'         0.6219    1.9765   -0.7844 C.3       1 ATP         0.2186
     22 N9          0.4237    1.4496   -2.1357 N.pl3     1 ATP        -0.1699
     23 C8          1.4069    0.9710   -2.9662 C.ar      1 ATP         0.4438
     24 N7          0.9316    0.5623   -4.1260 N.2       1 ATP        -0.6280
     25 C5         -0.4120    0.7884   -4.0344 C.ar      1 ATP         0.2109
     26 C6         -1.4353    0.5283   -5.0204 C.ar      1 ATP         0.6180
     27 N6         -1.1199    0.0176   -6.1586 N.2       1 ATP        -0.8319
     28 N1         -2.6704    0.9095   -4.5147 N.pl3     1 ATP        -0.8664
     29 C2         -2.8863    1.4571   -3.2520 C.ar      1 ATP         0.5952
     30 N3         -1.9805    1.7017   -2.3442 N.2       1 ATP        -0.5599
     31 C4         -0.7561    1.3381   -2.8112 C.ar      1 ATP         0.0076
     32 HOG3        4.4951    5.8037    6.5055 H         1 ATP         0.4101
     33 H5'1        4.4843    2.9854    0.0380 H         1 ATP         0.0364
     34 H5'2        4.3191    1.3446   -0.6392 H         1 ATP         0.0364
     35 H4'         2.3752    2.7029    1.3156 H         1 ATP         0.0945
     36 H3'         2.4336   -0.1217   -0.0015 H         1 ATP         0.0703
     37 HO3'        3.0987    0.1465    2.1461 H         1 ATP         0.4099
     38 H2'         0.0316    0.0155   -0.0339 H         1 ATP         0.0676
     39 HO2'       -0.1608    0.7921    2.1351 H         1 ATP         0.4291
     40 H1'        -0.1474    2.7798   -0.6651 H         1 ATP         0.0950
     41 H8          2.4466    0.9468   -2.6694 H         1 ATP         0.1135
     42 HN62       -1.9661   -0.0965   -6.7275 H         1 ATP         0.3588
     43 H2         -3.9481    1.6825   -3.0660 H         1 ATP         0.0302
     44 H44        -3.4814    0.7753   -5.1133 H         1 ATP         0.4215
@<TRIPOS>BOND
     1    1    2 2
     2    1    3 1
     3    1    4 1
     4    1    8 1
     5    4   32 1
     6    5    6 2
     7    5    7 1
     8    5    8 1
     9    5   12 1
    10    9   10 2
    11    9   11 1
    12    9   12 1
    13    9   13 1
    14   13   14 1
    15   14   15 1
    16   14   33 1
    17   14   34 1
    18   15   16 1
    19   15   17 1
    20   15   35 1
    21   16   21 1
    22   17   18 1
    23   17   19 1
    24   17   36 1
    25   18   37 1
    26   19   20 1
    27   19   21 1
    28   19   38 1
    29   20   39 1
    30   21   22 1
    31   21   40 1
    32   22   23 ar
    33   22   31 ar
    34   23   24 ar
    35   23   41 1
    36   24   25 ar
    37   25   26 ar
    38   25   31 ar
    39   26   27 2
    40   26   28 ar
    41   27   42 1
    42   28   29 ar
    43   28   44 1
    44   29   30 ar
    45   29   43 1
    46   30   31 ar
@<TRIPOS>SUBSTRUCTURE
     1 ATP         1 GROUP 0 A     ****
@<TRIPOS>MOLECULE
[[[3,4-dihydroxy-5-(6-imino-1~{H}-purin-9-yl)tetrahydrofuran-2-yl]methoxy-oxido-phosphoryl]oxy-oxido-phosphoryl] hydrogen phosphate
   44    46     1     0     0
SMALL
USER_CHARGES

@<TRIPOS>ATOM
      1 PG         -2.5110    4.9863    8.0749 P.3       1 ATP         1.5257
      2 O1G        -1.9573    4.1218    9.1855 O.co2     1 ATP        -0.8737
      3 O2G        -3.9701    5.3842    8.0535 O.co2     1 ATP        -0.8737
      4 O3G        -1.6031    6.3393    7.9691 O.3       1 ATP        -0.7971
      5 PB         -0.6704    3.8529    6.0572 P.3       1 ATP         1.6824
      6 O1B         0.1846    5.0834    5.8516 O.co2     1 ATP        -0.8925
      7 O2B        -0.1735    2.6813    6.8745 O.co2     1 ATP        -0.8925
      8 O3B        -2.1242    4.3168    6.6376 O.3       1 ATP        -0.8047
      9 PA         -1.9156    4.0918    3.3837 P.3       1 ATP         1.5908
     10 O1A        -0.9829    5.1484    2.8323 O.co2     1 ATP        -0.8932
     11 O2A        -3.3087    4.4562    3.8486 O.co2     1 ATP        -0.8932
     12 O3A        -1.1581    3.3049    4.5989 O.3       1 ATP        -0.8088
     13 O5'        -2.0401    2.8620    2.3128 O.3       1 ATP        -0.5646
     14 C5'        -0.8811    2.4285    1.6206 C.3       1 ATP         0.2204
     15 C4'        -0.1994    1.3333    2.4288 C.3       1 ATP         0.0965
     16 O4'        -1.1285    0.2356    2.5840 O.3       1 ATP        -0.3907
     17 C3'         1.0324    0.7610    1.7344 C.3       1 ATP         0.0763
     18 O3'         1.9175    0.2377    2.7247 O.3       1 ATP        -0.5884
     19 C2'         0.4468   -0.3802    0.9263 C.3       1 ATP         0.0784
     20 O2'         1.3993   -1.3703    0.5961 O.3       1 ATP        -0.6085
     21 C1'        -0.6159   -0.9100    1.8769 C.3       1 ATP         0.2186
     22 N9         -1.7127   -1.6108    1.2130 N.pl3     1 ATP        -0.1699
     23 C8         -2.0868   -2.9137    1.4327 C.ar      1 ATP         0.4438
     24 N7         -3.1125   -3.2756    0.6878 N.2       1 ATP        -0.6280
     25 C5         -3.4079   -2.1580   -0.0391 C.ar      1 ATP         0.2109
     26 C6         -4.4483   -1.9775   -1.0249 C.ar      1 ATP         0.6180
     27 N6         -5.2418   -2.9492   -1.3113 N.2       1 ATP        -0.8319
     28 N1         -4.3937   -0.6823   -1.5211 N.pl3     1 ATP        -0.8664
     29 C2         -3.4770    0.2901   -1.1271 C.ar      1 ATP         0.5952
     30 N3         -2.5289    0.1525   -0.2402 N.2       1 ATP        -0.5599
     31 C4         -2.5564   -1.1096    0.2655 C.ar      1 ATP         0.0076
     32 HOG3       -0.6463    6.2454    7.7741 H         1 ATP         0.4101
     33 H5'1       -1.1767    2.0502    0.6368 H         1 ATP         0.0364
     34 H5'2       -0.2080    3.2814    1.4876 H         1 ATP         0.0364
     35 H4'         0.0403    1.7078    3.4343 H         1 ATP         0.0945
     36 H3'         1.5907    1.4859    1.1353 H         1 ATP         0.0703
     37 HO3'        2.6839   -0.1150    2.2479 H         1 ATP         0.4099
     38 H2'        -0.0017    0.0018    0.0005 H         1 ATP         0.0676
     39 HO2'        2.0953   -0.9375    0.0709 H         1 ATP         0.4291
     40 H1'        -0.1998   -1.6319    2.6178 H         1 ATP         0.0950
     41 H8         -1.5740   -3.5449    2.1457 H         1 ATP         0.1135
     42 HN62       -5.9117   -2.6433   -2.0256 H         1 ATP         0.3588
     43 H2         -3.6225    1.2454   -1.6553 H         1 ATP         0.0302
     44 H44        -5.0794   -0.4231   -2.2258 H         1 ATP         0.4215
@<TRIPOS>BOND
     1    1    2 2
     2    1    3 1
     3    1    4 1
     4    1    8 1
     5    4   32 1
     6    5    6 2
     7    5    7 1
     8    5    8 1
     9    5   12 1
    10    9   10 2
    11    9   11 1
    12    9   12 1
    13    9   13 1
    14   13   14 1
    15   14   15 1
    16   14   33 1
    17   14   34 1
    18   15   16 1
    19   15   17 1
    20   15   35 1
    21   16   21 1
    22   17   18 1
    23   17   19 1
    24   17   36 1
    25   18   37 1
    26   19   20 1
    27   19   21 1
    28   19   38 1
    29   20   39 1
    30   21   22 1
    31   21   40 1
    32   22   23 ar
    33   22   31 ar
    34   23   24 ar
    35   23   41 1
    36   24   25 ar
    37   25   26 ar
    38   25   31 ar
    39   26   27 2
    40   26   28 ar
    41   27   42 1
    42   28   29 ar
    43   28   44 1
    44   29   30 ar
    45   29   43 1
    46   30   31 ar
@<TRIPOS>SUBSTRUCTURE
     1 ATP         1 GROUP 0 A     ****
@<TRIPOS>MOLECULE
[[[3,4-dihydroxy-5-(6-imino-1~{H}-purin-9-yl)tetrahydrofuran-2-yl]methoxy-oxido-phosphoryl]oxy-oxido-phosphoryl] hydrogen phosphate
   44    46     1     0     0
SMALL
USER_CHARGES

@<TRIPOS>ATOM
      1 PG          2.2507    2.6928    7.4685 P.3       1 ATP         1.5257
      2 O1G         2.5669    1.2165    7.5569 O.co2     1 ATP        -0.8737
      3 O2G         1.7321    3.4500    8.6708 O.co2     1 ATP        -0.8737
      4 O3G         3.5655    3.4713    6.8931 O.3       1 ATP        -0.7971
      5 PB          0.7057    4.3464    5.5653 P.3       1 ATP         1.6824
      6 O1B        -0.1876    5.0326    6.5745 O.co2     1 ATP        -0.8925
      7 O2B         1.8741    5.0699    4.9336 O.co2     1 ATP        -0.8925
      8 O3B         1.2436    2.9459    6.2093 O.3       1 ATP        -0.8047
      9 PA         -1.1369    4.4808    3.2540 P.3       1 ATP         1.5908
     10 O1A        -0.2214    5.2474    2.3242 O.co2     1 ATP        -0.8932
     11 O2A        -2.2827    5.1751    3.9574 O.co2     1 ATP        -0.8932
     12 O3A        -0.2270    3.7226    4.3797 O.3       1 ATP        -0.8088
     13 O5'        -1.7336    3.1724    2.4750 O.3       1 ATP        -0.5646
     14 C5'        -0.8811    2.4285    1.6206 C.3       1 ATP         0.2204
     15 C4'        -0.1994    1.3333    2.4288 C.3       1 ATP         0.0965
     16 O4'        -1.1285    0.2356    2.5840 O.3       1 ATP        -0.3907
     17 C3'         1.0324    0.7610    1.7344 C.3       1 ATP         0.0763
     18 O3'         1.9175    0.2377    2.7247 O.3       1 ATP        -0.5884
     19 C2'         0.4468   -0.3802    0.9263 C.3       1 ATP         0.0784
     20 O2'         1.3993   -1.3703    0.5961 O.3       1 ATP        -0.6085
     21 C1'        -0.6159   -0.9100    1.8769 C.3       1 ATP         0.2186
     22 N9         -1.7127   -1.6108    1.2130 N.pl3     1 ATP        -0.1699
     23 C8         -3.0370   -1.2489    1.2455 C.ar      1 ATP         0.4438
     24 N7         -3.8008   -2.0709    0.5534 N.2       1 ATP        -0.6280
     25 C5         -2.9295   -2.9976    0.0567 C.ar      1 ATP         0.2109
     26 C6         -3.2152   -4.1411   -0.7786 C.ar      1 ATP         0.6180
     27 N6         -4.4238   -4.3865   -1.1456 N.2       1 ATP        -0.8319
     28 N1         -2.0349   -4.8186   -1.0521 N.pl3     1 ATP        -0.8664
     29 C2         -0.7728   -4.4501   -0.5916 C.ar      1 ATP         0.5952
     30 N3         -0.4885   -3.4234    0.1630 N.2       1 ATP        -0.5599
     31 C4         -1.6274   -2.7377    0.4492 C.ar      1 ATP         0.0076
     32 HOG3        3.5185    4.4443    6.7773 H         1 ATP         0.4101
     33 H5'1       -1.4800    1.9927    0.8146 H         1 ATP         0.0364
     34 H5'2       -0.1367    3.1040    1.1872 H         1 ATP         0.0364
     35 H4'         0.0403    1.7078    3.4343 H         1 ATP         0.0945
     36 H3'         1.5907    1.4859    1.1353 H         1 ATP         0.0703
     37 HO3'        2.6839   -0.1150    2.2479 H         1 ATP         0.4099
     38 H2'        -0.0017    0.0018    0.0005 H         1 ATP         0.0676
     39 HO2'        2.0953   -0.9375    0.0709 H         1 ATP         0.4291
     40 H1'        -0.1998   -1.6319    2.6178 H         1 ATP         0.0950
     41 H8         -3.3806   -0.3795    1.7893 H         1 ATP         0.1135
     42 HN62       -4.4384   -5.2300   -1.7295 H         1 ATP         0.3588
     43 H2          0.0180   -5.1355   -0.9348 H         1 ATP         0.0302
     44 H44        -2.0977   -5.6477   -1.6374 H         1 ATP         0.4215
@<TRIPOS>BOND
     1    1    2 2
     2    1    3 1
     3    1    4 1
     4    1    8 1
     5    4   32 1
     6    5    6 2
     7    5    7 1
     8    5    8 1
     9    5   12 1
    10    9   10 2
    11    9   11 1
    12    9   12 1
    13    9   13 1
    14   13   14 1
    15   14   15 1
    16   14   33 1
    17   14   34 1
    18   15   16 1
    19   15   17 1
    20   15   35 1
    21   16   21 1
    22   17   18 1
    23   17   19 1
    24   17   36 1
    25   18   37 1
    26   19   20 1
    27   19   21 1
    28   19   38 1
    29   20   39 1
    30   21   22 1
    31   21   40 1
    32   22   23 ar
    33   22   31 ar
    34   23   24 ar
    35   23   41 1
    36   24   25 ar
    37   25   26 ar
    38   25   31 ar
    39   26   27 2
    40   26   28 ar
    41   27   42 1
    42   28   29 ar
    43   28   44 1
    44   29   30 ar
    45   29   43 1
    46   30   31 ar
@<TRIPOS>SUBSTRUCTURE
     1 ATP         1 GROUP 0 A     ****
@<TRIPOS>MOLECULE
[[[3,4-dihydroxy-5-(6-imino-1~{H}-purin-9-yl)tetrahydrofuran-2-yl]methoxy-oxido-phosphoryl]oxy-oxido-phosphoryl] hydrogen phosphate
   44    46     1     0     0
SMALL
USER_CHARGES

@<TRIPOS>ATOM
      1 PG         -3.3561   -2.3446    5.2980 P.3       1 ATP         1.5257
      2 O1G        -3.9451   -3.3083    4.2921 O.co2     1 ATP        -0.8737
      3 O2G        -4.0425   -2.0858    6.6207 O.co2     1 ATP        -0.8737
      4 O3G        -1.8110   -2.7826    5.5927 O.3       1 ATP        -0.7971
      5 PB         -4.1224    0.1715    3.9470 P.3       1 ATP         1.6824
      6 O1B        -4.8150   -0.4449    2.7521 O.co2     1 ATP        -0.8925
      7 O2B        -4.9138    0.7773    5.0847 O.co2     1 ATP        -0.8925
      8 O3B        -3.0714   -0.9163    4.5614 O.3       1 ATP        -0.8047
      9 PA         -3.2890    2.7005    2.6567 P.3       1 ATP         1.5908
     10 O1A        -3.9939    3.6421    3.6090 O.co2     1 ATP        -0.8932
     11 O2A        -3.8602    2.4175    1.2844 O.co2     1 ATP        -0.8932
     12 O3A        -3.0427    1.2741    3.4147 O.3       1 ATP        -0.8088
     13 O5'        -1.7336    3.1724    2.4750 O.3       1 ATP        -0.5646
     14 C5'        -0.8811    2.4285    1.6206 C.3       1 ATP         0.2204
     15 C4'        -0.1994    1.3333    2.4288 C.3       1 ATP         0.0965
     16 O4'        -1.1285    0.2356    2.5840 O.3       1 ATP        -0.3907
     17 C3'         1.0324    0.7610    1.7344 C.3       1 ATP         0.0763
     18 O3'         1.9175    0.2377    2.7247 O.3       1 ATP        -0.5884
     19 C2'         0.4468   -0.3802    0.9263 C.3       1 ATP         0.0784
     20 O2'         1.3993   -1.3703    0.5961 O.3       1 ATP        -0.6085
     21 C1'        -0.6159   -0.9100    1.8769 C.3       1 ATP         0.2186
     22 N9         -1.7127   -1.6108    1.2130 N.pl3     1 ATP        -0.1699
     23 C8         -2.0868   -2.9137    1.4327 C.ar      1 ATP         0.4438
     24 N7         -3.1125   -3.2756    0.6878 N.2       1 ATP        -0.6280
     25 C5         -3.4079   -2.1580   -0.0391 C.ar      1 ATP         0.2109
     26 C6         -4.4483   -1.9775   -1.0249 C.ar      1 ATP         0.6180
     27 N6         -5.2418   -2.9492   -1.3113 N.2       1 ATP        -0.8319
     28 N1         -4.3937   -0.6823   -1.5211 N.pl3     1 ATP        -0.8664
     29 C2         -3.4770    0.2901   -1.1271 C.ar      1 ATP         0.5952
     30 N3         -2.5289    0.1525   -0.2402 N.2       1 ATP        -0.5599
     31 C4         -2.5564   -1.1096    0.2655 C.ar      1 ATP         0.0076
     32 HOG3       -1.2884   -2.2505    6.2299 H         1 ATP         0.4101
     33 H5'1       -1.4800    1.9927    0.8146 H         1 ATP         0.0364
     34 H5'2       -0.1367    3.1040    1.1872 H         1 ATP         0.0364
     35 H4'         0.0403    1.7078    3.4343 H         1 ATP         0.0945
     36 H3'         1.5907    1.4859    1.1353 H         1 ATP         0.0703
     37 HO3'        2.6839   -0.1150    2.2479 H         1 ATP         0.4099
     38 H2'        -0.0017    0.0018    0.0005 H         1 ATP         0.0676
     39 HO2'        2.0953   -0.9375    0.0709 H         1 ATP         0.4291
     40 H1'        -0.1998   -1.6319    2.6178 H         1 ATP         0.0950
     41 H8         -1.5740   -3.5449    2.1457 H         1 ATP         0.1135
     42 HN62       -5.9117   -2.6433   -2.0256 H         1 ATP         0.3588
     43 H2         -3.6225    1.2454   -1.6553 H         1 ATP         0.0302
     44 H44        -5.0794   -0.4231   -2.2258 H         1 ATP         0.4215
@<TRIPOS>BOND
     1    1    2 2
     2    1    3 1
     3    1    4 1
     4    1    8 1
     5    4   32 1
     6    5    6 2
     7    5    7 1
     8    5    8 1
     9    5   12 1
    10    9   10 2
    11    9   11 1
    12    9   12 1
    13    9   13 1
    14   13   14 1
    15   14   15 1
    16   14   33 1
    17   14   34 1
    18   15   16 1
    19   15   17 1
    20   15   35 1
    21   16   21 1
    22   17   18 1
    23   17   19 1
    24   17   36 1
    25   18   37 1
    26   19   20 1
    27   19   21 1
    28   19   38 1
    29   20   39 1
    30   21   22 1
    31   21   40 1
    32   22   23 ar
    33   22   31 ar
    34   23   24 ar
    35   23   41 1
    36   24   25 ar
    37   25   26 ar
    38   25   31 ar
    39   26   27 2
    40   26   28 ar
    41   27   42 1
    42   28   29 ar
    43   28   44 1
    44   29   30 ar
    45   29   43 1
    46   30   31 ar
@<TRIPOS>SUBSTRUCTURE
     1 ATP         1 GROUP 0 A     ****
@<TRIPOS>MOLECULE
[[[3,4-dihydroxy-5-(6-imino-1~{H}-purin-9-yl)tetrahydrofuran-2-yl]methoxy-oxido-phosphoryl]oxy-oxido-phosphoryl] hydrogen phosphate
   44    46     1     0     0
SMALL
USER_CHARGES

@<TRIPOS>ATOM
      1 PG         -6.1530    4.0317   -2.0824 P.3       1 ATP         1.5257
      2 O1G        -7.1772    5.0566   -1.6492 O.co2     1 ATP        -0.8737
      3 O2G        -6.5811    2.7044   -2.6679 O.co2     1 ATP        -0.8737
      4 O3G        -5.1126    4.7443   -3.1195 O.3       1 ATP        -0.7971
      5 PB         -5.3893    3.0598    0.6038 P.3       1 ATP         1.6824
      6 O1B        -6.3064    3.9533    1.4089 O.co2     1 ATP        -0.8925
      7 O2B        -5.7115    1.5980    0.3875 O.co2     1 ATP        -0.8925
      8 O3B        -5.1213    3.7571   -0.8479 O.3       1 ATP        -0.8047
      9 PA         -3.2890    2.7005    2.6567 P.3       1 ATP         1.5908
     10 O1A        -3.3524    1.1904    2.7326 O.co2     1 ATP        -0.8932
     11 O2A        -3.9196    3.5563    3.7336 O.co2     1 ATP        -0.8932
     12 O3A        -3.8782    3.1790    1.2098 O.3       1 ATP        -0.8088
     13 O5'        -1.7336    3.1724    2.4750 O.3       1 ATP        -0.5646
     14 C5'        -0.8811    2.4285    1.6206 C.3       1 ATP         0.2204
     15 C4'        -0.1994    1.3333    2.4288 C.3       1 ATP         0.0965
     16 O4'        -1.1285    0.2356    2.5840 O.3       1 ATP        -0.3907
     17 C3'         1.0324    0.7610    1.7344 C.3       1 ATP         0.0763
     18 O3'         1.9175    0.2377    2.7247 O.3       1 ATP        -0.5884
     19 C2'         0.4468   -0.3802    0.9263 C.3       1 ATP         0.0784
     20 O2'         1.3993   -1.3703    0.5961 O.3       1 ATP        -0.6085
     21 C1'        -0.6159   -0.9100    1.8769 C.3       1 ATP         0.2186
     22 N9         -1.7127   -1.6108    1.2130 N.pl3     1 ATP        -0.1699
     23 C8         -2.0868   -2.9137    1.4327 C.ar      1 ATP         0.4438
     24 N7         -3.1125   -3.2756    0.6878 N.2       1 ATP        -0.6280
     25 C5         -3.4079   -2.1580   -0.0391 C.ar      1 ATP         0.2109
     26 C6         -4.4483   -1.9775   -1.0249 C.ar      1 ATP         0.6180
     27 N6         -5.2418   -2.9492   -1.3113 N.2       1 ATP        -0.8319
     28 N1         -4.3937   -0.6823   -1.5211 N.pl3     1 ATP        -0.8664
     29 C2         -3.4770    0.2901   -1.1271 C.ar      1 ATP         0.5952
     30 N3         -2.5289    0.1525   -0.2402 N.2       1 ATP        -0.5599
     31 C4         -2.5564   -1.1096    0.2655 C.ar      1 ATP         0.0076
     32 HOG3       -4.3830    4.2054   -3.4931 H         1 ATP         0.4101
     33 H5'1       -1.4800    1.9927    0.8146 H         1 ATP         0.0364
     34 H5'2       -0.1367    3.1040    1.1872 H         1 ATP         0.0364
     35 H4'         0.0403    1.7078    3.4343 H         1 ATP         0.0945
     36 H3'         1.5907    1.4859    1.1353 H         1 ATP         0.0703
     37 HO3'        2.6839   -0.1150    2.2479 H         1 ATP         0.4099
     38 H2'        -0.0017    0.0018    0.0005 H         1 ATP         0.0676
     39 HO2'        2.0953   -0.9375    0.0709 H         1 ATP         0.4291
     40 H1'        -0.1998   -1.6319    2.6178 H         1 ATP         0.0950
     41 H8         -1.5740   -3.5449    2.1457 H         1 ATP         0.1135
     42 HN62       -5.9117   -2.6433   -2.0256 H         1 ATP         0.3588
     43 H2         -3.6225    1.2454   -1.6553 H         1 ATP         0.0302
     44 H44        -5.0794   -0.4231   -2.2258 H         1 ATP         0.4215
@<TRIPOS>BOND
     1    1    2 2
     2    1    3 1
     3    1    4 1
     4    1    8 1
     5    4   32 1
     6    5    6 2
     7    5    7 1
     8    5    8 1
     9    5   12 1
    10    9   10 2
    11    9   11 1
    12    9   12 1
    13    9   13 1
    14   13   14 1
    15   14   15 1
    16   14   33 1
    17   14   34 1
    18   15   16 1
    19   15   17 1
    20   15   35 1
    21   16   21 1
    22   17   18 1
    23   17   19 1
    24   17   36 1
    25   18   37 1
    26   19   20 1
    27   19   21 1
    28   19   38 1
    29   20   39 1
    30   21   22 1
    31   21   40 1
    32   22   23 ar
    33   22   31 ar
    34   23   24 ar
    35   23   41 1
    36   24   25 ar
    37   25   26 ar
    38   25   31 ar
    39   26   27 2
    40   26   28 ar
    41   27   42 1
    42   28   29 ar
    43   28   44 1
    44   29   30 ar
    45   29   43 1
    46   30   31 ar
@<TRIPOS>SUBSTRUCTURE
     1 ATP         1 GROUP 0 A     ****
@<TRIPOS>MOLECULE
[[[3,4-dihydroxy-5-(6-imino-1~{H}-purin-9-yl)tetrahydrofuran-2-yl]methoxy-oxido-phosphoryl]oxy-oxido-phosphoryl] hydrogen phosphate
   44    46     1     0     0
SMALL
USER_CHARGES

@<TRIPOS>ATOM
      1 PG         -0.5457    5.7120   -2.4219 P.3       1 ATP         1.5257
      2 O1G        -0.5101    7.2238   -2.4497 O.co2     1 ATP        -0.8737
      3 O2G        -1.7043    4.9734   -1.7895 O.co2     1 ATP        -0.8737
      4 O3G        -0.3492    5.1604   -3.9460 O.3       1 ATP        -0.7971
      5 PB          2.3936    5.4869   -2.1917 P.3       1 ATP         1.6824
      6 O1B         2.6594    4.9137   -3.5659 O.co2     1 ATP        -0.8925
      7 O2B         2.6822    6.9383   -1.8791 O.co2     1 ATP        -0.8925
      8 O3B         0.8485    5.1596   -1.7780 O.3       1 ATP        -0.8047
      9 PA          4.7368    4.3145   -0.8169 P.3       1 ATP         1.5908
     10 O1A         5.3515    5.6144   -0.3450 O.co2     1 ATP        -0.8932
     11 O2A         5.3105    3.5740   -2.0052 O.co2     1 ATP        -0.8932
     12 O3A         3.1422    4.5531   -1.0815 O.3       1 ATP        -0.8088
     13 O5'         4.6405    3.2699    0.4378 O.3       1 ATP        -0.5646
     14 C5'         4.0922    1.9801    0.2227 C.3       1 ATP         0.2204
     15 C4'         2.5944    2.0310    0.4653 C.3       1 ATP         0.0965
     16 O4'         1.9327    2.5740   -0.6889 O.3       1 ATP        -0.3907
     17 C3'         1.9685    0.6634    0.6767 C.3       1 ATP         0.0763
     18 O3'         2.1425    0.1975    1.9977 O.3       1 ATP        -0.5884
     19 C2'         0.5176    0.9128    0.3099 C.3       1 ATP         0.0784
     20 O2'        -0.2103    1.4454    1.4152 O.3       1 ATP        -0.6085
     21 C1'         0.6219    1.9765   -0.7844 C.3       1 ATP         0.2186
     22 N9          0.4237    1.4496   -2.1357 N.pl3     1 ATP        -0.1699
     23 C8          1.4069    0.9710   -2.9662 C.ar      1 ATP         0.4438
     24 N7          0.9316    0.5623   -4.1260 N.2       1 ATP        -0.6280
     25 C5         -0.4120    0.7884   -4.0344 C.ar      1 ATP         0.2109
     26 C6         -1.4353    0.5283   -5.0204 C.ar      1 ATP         0.6180
     27 N6         -1.1199    0.0176   -6.1586 N.2       1 ATP        -0.8319
     28 N1         -2.6704    0.9095   -4.5147 N.pl3     1 ATP        -0.8664
     29 C2         -2.8863    1.4571   -3.2520 C.ar      1 ATP         0.5952
     30 N3         -1.9805    1.7017   -2.3442 N.2       1 ATP        -0.5599
     31 C4         -0.7561    1.3381   -2.8112 C.ar      1 ATP         0.0076
     32 HOG3       -0.3493    4.1909   -4.0953 H         1 ATP         0.4101
     33 H5'1        4.3028    1.6728   -0.8066 H         1 ATP         0.0364
     34 H5'2        4.5677    1.2738    0.9106 H         1 ATP         0.0364
     35 H4'         2.3752    2.7029    1.3156 H         1 ATP         0.0945
     36 H3'         2.4336   -0.1217   -0.0015 H         1 ATP         0.0703
     37 HO3'        1.7160   -0.6716    2.0397 H         1 ATP         0.4099
     38 H2'         0.0316    0.0155   -0.0339 H         1 ATP         0.0676
     39 HO2'       -0.1608    0.7921    2.1351 H         1 ATP         0.4291
     40 H1'        -0.1474    2.7798   -0.6651 H         1 ATP         0.0950
     41 H8          2.4466    0.9468   -2.6694 H         1 ATP         0.1135
     42 HN62       -1.9661   -0.0965   -6.7275 H         1 ATP         0.3588
     43 H2         -3.9481    1.6825   -3.0660 H         1 ATP         0.0302
     44 H44        -3.4814    0.7753   -5.1133 H         1 ATP         0.4215
@<TRIPOS>BOND
     1    1    2 2
     2    1    3 1
     3    1    4 1
     4    1    8 1
     5    4   32 1
     6    5    6 2
     7    5    7 1
     8    5    8 1
     9    5   12 1
    10    9   10 2
    11    9   11 1
    12    9   12 1
    13    9   13 1
    14   13   14 1
    15   14   15 1
    16   14   33 1
    17   14   34 1
    18   15   16 1
    19   15   17 1
    20   15   35 1
    21   16   21 1
    22   17   18 1
    23   17   19 1
    24   17   36 1
    25   18   37 1
    26   19   20 1
    27   19   21 1
    28   19   38 1
    29   20   39 1
    30   21   22 1
    31   21   40 1
    32   22   23 ar
    33   22   31 ar
    34   23   24 ar
    35   23   41 1
    36   24   25 ar
    37   25   26 ar
    38   25   31 ar
    39   26   27 2
    40   26   28 ar
    41   27   42 1
    42   28   29 ar
    43   28   44 1
    44   29   30 ar
    45   29   43 1
    46   30   31 ar
@<TRIPOS>SUBSTRUCTURE
     1 ATP         1 GROUP 0 A     ****
@<TRIPOS>MOLECULE
[[[3,4-dihydroxy-5-(6-imino-1~{H}-purin-9-yl)tetrahydrofuran-2-yl]methoxy-oxido-phosphoryl]oxy-oxido-phosphoryl] hydrogen phosphate
   44    46     1     0     0
SMALL
USER_CHARGES

@<TRIPOS>ATOM
      1 PG          5.7683   -3.9566   -1.4061 P.3       1 ATP         1.5257
      2 O1G         6.6663   -3.4732   -2.5230 O.co2     1 ATP        -0.8737
      3 O2G         4.5701   -4.8328   -1.6962 O.co2     1 ATP        -0.8737
      4 O3G         6.6920   -4.6971   -0.2817 O.3       1 ATP        -0.7971
      5 PB          4.4388   -2.6254    0.8751 P.3       1 ATP         1.6824
      6 O1B         3.0366   -3.1269    0.6108 O.co2     1 ATP        -0.8925
      7 O2B         5.2884   -3.2188    1.9767 O.co2     1 ATP        -0.8925
      8 O3B         5.2837   -2.6737   -0.5211 O.3       1 ATP        -0.8047
      9 PA          5.6073    0.0705    1.2242 P.3       1 ATP         1.5908
     10 O1A         6.3913    0.1078   -0.0697 O.co2     1 ATP        -0.8932
     11 O2A         6.3031   -0.1872    2.5430 O.co2     1 ATP        -0.8932
     12 O3A         4.3874   -1.0053    1.0684 O.3       1 ATP        -0.8088
     13 O5'         4.7294    1.4427    1.3696 O.3       1 ATP        -0.5646
     14 C5'         4.0922    1.9801    0.2227 C.3       1 ATP         0.2204
     15 C4'         2.5944    2.0310    0.4653 C.3       1 ATP         0.0965
     16 O4'         1.9327    2.5740   -0.6889 O.3       1 ATP        -0.3907
     17 C3'         1.9685    0.6634    0.6767 C.3       1 ATP         0.0763
     18 O3'         2.1425    0.1975    1.9977 O.3       1 ATP        -0.5884
     19 C2'         0.5176    0.9128    0.3099 C.3       1 ATP         0.0784
     20 O2'        -0.2103    1.4454    1.4152 O.3       1 ATP        -0.6085
     21 C1'         0.6219    1.9765   -0.7844 C.3       1 ATP         0.2186
     22 N9          0.4237    1.4496   -2.1357 N.pl3     1 ATP        -0.1699
     23 C8          1.4069    0.9710   -2.9662 C.ar      1 ATP         0.4438
     24 N7          0.9316    0.5623   -4.1260 N.2       1 ATP        -0.6280
     25 C5         -0.4120    0.7884   -4.0344 C.ar      1 ATP         0.2109
     26 C6         -1.4353    0.5283   -5.0204 C.ar      1 ATP         0.6180
     27 N6         -1.1199    0.0176   -6.1586 N.2       1 ATP        -0.8319
     28 N1         -2.6704    0.9095   -4.5147 N.pl3     1 ATP        -0.8664
     29 C2         -2.8863    1.4571   -3.2520 C.ar      1 ATP         0.5952
     30 N3         -1.9805    1.7017   -2.3442 N.2       1 ATP        -0.5599
     31 C4         -0.7561    1.3381   -2.8112 C.ar      1 ATP         0.0076
     32 HOG3        6.2525   -5.0687    0.5127 H         1 ATP         0.4101
     33 H5'1        4.4843    2.9854    0.0380 H         1 ATP         0.0364
     34 H5'2        4.3191    1.3446   -0.6392 H         1 ATP         0.0364
     35 H4'         2.3752    2.7029    1.3156 H         1 ATP         0.0945
     36 H3'         2.4336   -0.1217   -0.0015 H         1 ATP         0.0703
     37 HO3'        1.7160   -0.6716    2.0397 H         1 ATP         0.4099
     38 H2'         0.0316    0.0155   -0.0339 H         1 ATP         0.0676
     39 HO2'       -0.1608    0.7921    2.1351 H         1 ATP         0.4291
     40 H1'        -0.1474    2.7798   -0.6651 H         1 ATP         0.0950
     41 H8          2.4466    0.9468   -2.6694 H         1 ATP         0.1135
     42 HN62       -1.9661   -0.0965   -6.7275 H         1 ATP         0.3588
     43 H2         -3.9481    1.6825   -3.0660 H         1 ATP         0.0302
     44 H44        -3.4814    0.7753   -5.1133 H         1 ATP         0.4215
@<TRIPOS>BOND
     1    1    2 2
     2    1    3 1
     3    1    4 1
     4    1    8 1
     5    4   32 1
     6    5    6 2
     7    5    7 1
     8    5    8 1
     9    5   12 1
    10    9   10 2
    11    9   11 1
    12    9   12 1
    13    9   13 1
    14   13   14 1
    15   14   15 1
    16   14   33 1
    17   14   34 1
    18   15   16 1
    19   15   17 1
    20   15   35 1
    21   16   21 1
    22   17   18 1
    23   17   19 1
    24   17   36 1
    25   18   37 1
    26   19   20 1
    27   19   21 1
    28   19   38 1
    29   20   39 1
    30   21   22 1
    31   21   40 1
    32   22   23 ar
    33   22   31 ar
    34   23   24 ar
    35   23   41 1
    36   24   25 ar
    37   25   26 ar
    38   25   31 ar
    39   26   27 2
    40   26   28 ar
    41   27   42 1
    42   28   29 ar
    43   28   44 1
    44   29   30 ar
    45   29   43 1
    46   30   31 ar
@<TRIPOS>SUBSTRUCTURE
     1 ATP         1 GROUP 0 A     ****
@<TRIPOS>MOLECULE
[[[3,4-dihydroxy-5-(6-imino-1~{H}-purin-9-yl)tetrahydrofuran-2-yl]methoxy-oxido-phosphoryl]oxy-oxido-phosphoryl] hydrogen phosphate
   44    46     1     0     0
SMALL
USER_CHARGES

@<TRIPOS>ATOM
      1 PG          4.7685    5.8822   -1.0273 P.3       1 ATP         1.5257
      2 O1G         5.0265    7.1027   -0.1722 O.co2     1 ATP        -0.8737
      3 O2G         4.5470    6.0102   -2.5180 O.co2     1 ATP        -0.8737
      4 O3G         5.9704    4.8068   -0.7723 O.3       1 ATP        -0.7971
      5 PB          2.9416    3.5685   -0.7969 P.3       1 ATP         1.6824
      6 O1B         2.3105    3.6736   -2.1674 O.co2     1 ATP        -0.8925
      7 O2B         3.9861    2.5174   -0.4939 O.co2     1 ATP        -0.8925
      8 O3B         3.5350    5.0314   -0.3804 O.3       1 ATP        -0.8047
      9 PA          0.4655    4.4361    0.5710 P.3       1 ATP         1.5908
     10 O1A        -0.4570    4.3402   -0.6249 O.co2     1 ATP        -0.8932
     11 O2A         0.9689    5.7789    1.0539 O.co2     1 ATP        -0.8932
     12 O3A         1.7548    3.4645    0.3191 O.3       1 ATP        -0.8088
     13 O5'        -0.2062    3.6557    1.8417 O.3       1 ATP        -0.5646
     14 C5'        -0.8811    2.4285    1.6206 C.3       1 ATP         0.2204
     15 C4'        -0.1994    1.3333    2.4288 C.3       1 ATP         0.0965
     16 O4'        -1.1285    0.2356    2.5840 O.3       1 ATP        -0.3907
     17 C3'         1.0324    0.7610    1.7344 C.3       1 ATP         0.0763
     18 O3'         1.9175    0.2377    2.7247 O.3       1 ATP        -0.5884
     19 C2'         0.4468   -0.3802    0.9263 C.3       1 ATP         0.0784
     20 O2'         1.3993   -1.3703    0.5961 O.3       1 ATP        -0.6085
     21 C1'        -0.6159   -0.9100    1.8769 C.3       1 ATP         0.2186
     22 N9         -1.7127   -1.6108    1.2130 N.pl3     1 ATP        -0.1699
     23 C8         -2.8662   -1.0361    0.7388 C.ar      1 ATP         0.4438
     24 N7         -3.6774   -1.9166    0.1867 N.2       1 ATP        -0.6280
     25 C5         -3.0159   -3.1045    0.3122 C.ar      1 ATP         0.2109
     26 C6         -3.4377   -4.4169   -0.1199 C.ar      1 ATP         0.6180
     27 N6         -4.5720   -4.5691   -0.7080 N.2       1 ATP        -0.8319
     28 N1         -2.4600   -5.3463    0.2071 N.pl3     1 ATP        -0.8664
     29 C2         -1.2595   -5.0554    0.8515 C.ar      1 ATP         0.5952
     30 N3         -0.8555   -3.8803    1.2516 N.2       1 ATP        -0.5599
     31 C4         -1.7946   -2.9457    0.9448 C.ar      1 ATP         0.0076
     32 HOG3        5.9461    3.9554   -1.2589 H         1 ATP         0.4101
     33 H5'1       -1.9256    2.5380    1.9293 H         1 ATP         0.0364
     34 H5'2       -0.8474    2.1930    0.5521 H         1 ATP         0.0364
     35 H4'         0.0403    1.7078    3.4343 H         1 ATP         0.0945
     36 H3'         1.5907    1.4859    1.1353 H         1 ATP         0.0703
     37 HO3'        2.6839   -0.1150    2.2479 H         1 ATP         0.4099
     38 H2'        -0.0017    0.0018    0.0005 H         1 ATP         0.0676
     39 HO2'        2.0953   -0.9375    0.0709 H         1 ATP         0.4291
     40 H1'        -0.1998   -1.6319    2.6178 H         1 ATP         0.0950
     41 H8         -3.0558    0.0252    0.8256 H         1 ATP         0.1135
     42 HN62       -4.7047   -5.5592   -0.9421 H         1 ATP         0.3588
     43 H2         -0.6372   -5.9505    1.0077 H         1 ATP         0.0302
     44 H44        -2.6338   -6.3155   -0.0469 H         1 ATP         0.4215
@<TRIPOS>BOND
     1    1    2 2
     2    1    3 1
     3    1    4 1
     4    1    8 1
     5    4   32 1
     6    5    6 2
     7    5    7 1
     8    5    8 1
     9    5   12 1
    10    9   10 2
    11    9   11 1
    12    9   12 1
    13    9   13 1
    14   13   14 1
    15   14   15 1
    16   14   33 1
    17   14   34 1
    18   15   16 1
    19   15   17 1
    20   15   35 1
    21   16   21 1
    22   17   18 1
    23   17   19 1
    24   17   36 1
    25   18   37 1
    26   19   20 1
    27   19   21 1
    28   19   38 1
    29   20   39 1
    30   21   22 1
    31   21   40 1
    32   22   23 ar
    33   22   31 ar
    34   23   24 ar
    35   23   41 1
    36   24   25 ar
    37   25   26 ar
    38   25   31 ar
    39   26   27 2
    40   26   28 ar
    41   27   42 1
    42   28   29 ar
    43   28   44 1
    44   29   30 ar
    45   29   43 1
    46   30   31 ar
@<TRIPOS>SUBSTRUCTURE
     1 ATP         1 GROUP 0 A     ****
@<TRIPOS>MOLECULE
[[[3,4-dihydroxy-5-(6-imino-1~{H}-purin-9-yl)tetrahydrofuran-2-yl]methoxy-oxido-phosphoryl]oxy-oxido-phosphoryl] hydrogen phosphate
   44    46     1     0     0
SMALL
USER_CHARGES

@<TRIPOS>ATOM
      1 PG         -5.0779    5.2195   -2.1274 P.3       1 ATP         1.5257
      2 O1G        -3.8245    5.7535   -2.7842 O.co2     1 ATP        -0.8737
      3 O2G        -6.1840    6.1535   -1.6891 O.co2     1 ATP        -0.8737
      4 O3G        -5.7213    4.0717   -3.0941 O.3       1 ATP        -0.7971
      5 PB         -3.9340    4.6679    0.5429 P.3       1 ATP         1.6824
      6 O1B        -2.5209    5.1230    0.2540 O.co2     1 ATP        -0.8925
      7 O2B        -4.8837    5.5255    1.3492 O.co2     1 ATP        -0.8925
      8 O3B        -4.6551    4.2722   -0.8674 O.3       1 ATP        -0.8047
      9 PA         -3.2890    2.7005    2.6567 P.3       1 ATP         1.5908
     10 O1A        -3.3524    1.1904    2.7326 O.co2     1 ATP        -0.8932
     11 O2A        -3.9196    3.5563    3.7336 O.co2     1 ATP        -0.8932
     12 O3A        -3.8782    3.1790    1.2098 O.3       1 ATP        -0.8088
     13 O5'        -1.7336    3.1724    2.4750 O.3       1 ATP        -0.5646
     14 C5'        -0.8811    2.4285    1.6206 C.3       1 ATP         0.2204
     15 C4'        -0.1994    1.3333    2.4288 C.3       1 ATP         0.0965
     16 O4'        -1.1285    0.2356    2.5840 O.3       1 ATP        -0.3907
     17 C3'         1.0324    0.7610    1.7344 C.3       1 ATP         0.0763
     18 O3'         1.9175    0.2377    2.7247 O.3       1 ATP        -0.5884
     19 C2'         0.4468   -0.3802    0.9263 C.3       1 ATP         0.0784
     20 O2'         1.3993   -1.3703    0.5961 O.3       1 ATP        -0.6085
     21 C1'        -0.6159   -0.9100    1.8769 C.3       1 ATP         0.2186
     22 N9         -1.7127   -1.6108    1.2130 N.pl3     1 ATP        -0.1699
     23 C8         -2.5485   -1.0808    0.2609 C.ar      1 ATP         0.4438
     24 N7         -3.4476   -1.9486   -0.1593 N.2       1 ATP        -0.6280
     25 C5         -3.1762   -3.0816    0.5530 C.ar      1 ATP         0.2109
     26 C6         -3.8510   -4.3579    0.5006 C.ar      1 ATP         0.6180
     27 N6         -4.8468   -4.5293   -0.2961 N.2       1 ATP        -0.8319
     28 N1         -3.2499   -5.2342    1.3937 N.pl3     1 ATP        -0.8664
     29 C2         -2.1646   -4.9275    2.2116 C.ar      1 ATP         0.5952
     30 N3         -1.5382   -3.7840    2.2778 N.2       1 ATP        -0.5599
     31 C4         -2.1054   -2.9018    1.4120 C.ar      1 ATP         0.0076
     32 HOG3       -6.5454    3.6254   -2.8042 H         1 ATP         0.4101
     33 H5'1       -1.4800    1.9927    0.8146 H         1 ATP         0.0364
     34 H5'2       -0.1367    3.1040    1.1872 H         1 ATP         0.0364
     35 H4'         0.0403    1.7078    3.4343 H         1 ATP         0.0945
     36 H3'         1.5907    1.4859    1.1353 H         1 ATP         0.0703
     37 HO3'        2.1521    0.9800    3.3017 H         1 ATP         0.4099
     38 H2'        -0.0017    0.0018    0.0005 H         1 ATP         0.0676
     39 HO2'        0.9369   -2.0558    0.0825 H         1 ATP         0.4291
     40 H1'        -0.1998   -1.6319    2.6178 H         1 ATP         0.0950
     41 H8         -2.4515   -0.0599   -0.0829 H         1 ATP         0.1135
     42 HN62       -5.1990   -5.4882   -0.2005 H         1 ATP         0.3588
     43 H2         -1.8555   -5.7783    2.8388 H         1 ATP         0.0302
     44 H44        -3.6312   -6.1750    1.4526 H         1 ATP         0.4215
@<TRIPOS>BOND
     1    1    2 2
     2    1    3 1
     3    1    4 1
     4    1    8 1
     5    4   32 1
     6    5    6 2
     7    5    7 1
     8    5    8 1
     9    5   12 1
    10    9   10 2
    11    9   11 1
    12    9   12 1
    13    9   13 1
    14   13   14 1
    15   14   15 1
    16   14   33 1
    17   14   34 1
    18   15   16 1
    19   15   17 1
    20   15   35 1
    21   16   21 1
    22   17   18 1
    23   17   19 1
    24   17   36 1
    25   18   37 1
    26   19   20 1
    27   19   21 1
    28   19   38 1
    29   20   39 1
    30   21   22 1
    31   21   40 1
    32   22   23 ar
    33   22   31 ar
    34   23   24 ar
    35   23   41 1
    36   24   25 ar
    37   25   26 ar
    38   25   31 ar
    39   26   27 2
    40   26   28 ar
    41   27   42 1
    42   28   29 ar
    43   28   44 1
    44   29   30 ar
    45   29   43 1
    46   30   31 ar
@<TRIPOS>SUBSTRUCTURE
     1 ATP         1 GROUP 0 A     ****
@<TRIPOS>MOLECULE
[[[3,4-dihydroxy-5-(6-imino-1~{H}-purin-9-yl)tetrahydrofuran-2-yl]methoxy-oxido-phosphoryl]oxy-oxido-phosphoryl] hydrogen phosphate
   44    46     1     0     0
SMALL
USER_CHARGES

@<TRIPOS>ATOM
      1 PG          0.4078    1.7118    6.8743 P.3       1 ATP         1.5257
      2 O1G        -0.4127    1.0366    5.7981 O.co2     1 ATP        -0.8737
      3 O2G        -0.2355    2.1904    8.1569 O.co2     1 ATP        -0.8737
      4 O3G         1.6635    0.7403    7.2553 O.3       1 ATP        -0.7971
      5 PB          0.7057    4.3464    5.5653 P.3       1 ATP         1.6824
      6 O1B        -0.1876    5.0326    6.5745 O.co2     1 ATP        -0.8925
      7 O2B         1.8741    5.0699    4.9336 O.co2     1 ATP        -0.8925
      8 O3B         1.2436    2.9459    6.2093 O.3       1 ATP        -0.8047
      9 PA         -1.1369    4.4808    3.2540 P.3       1 ATP         1.5908
     10 O1A        -0.2214    5.2474    2.3242 O.co2     1 ATP        -0.8932
     11 O2A        -2.2827    5.1751    3.9574 O.co2     1 ATP        -0.8932
     12 O3A        -0.2270    3.7226    4.3797 O.3       1 ATP        -0.8088
     13 O5'        -1.7336    3.1724    2.4750 O.3       1 ATP        -0.5646
     14 C5'        -0.8811    2.4285    1.6206 C.3       1 ATP         0.2204
     15 C4'        -0.1994    1.3333    2.4288 C.3       1 ATP         0.0965
     16 O4'        -1.1285    0.2356    2.5840 O.3       1 ATP        -0.3907
     17 C3'         1.0324    0.7610    1.7344 C.3       1 ATP         0.0763
     18 O3'         1.9175    0.2377    2.7247 O.3       1 ATP        -0.5884
     19 C2'         0.4468   -0.3802    0.9263 C.3       1 ATP         0.0784
     20 O2'         1.3993   -1.3703    0.5961 O.3       1 ATP        -0.6085
     21 C1'        -0.6159   -0.9100    1.8769 C.3       1 ATP         0.2186
     22 N9         -1.7127   -1.6108    1.2130 N.pl3     1 ATP        -0.1699
     23 C8         -3.0370   -1.2489    1.2455 C.ar      1 ATP         0.4438
     24 N7         -3.8008   -2.0709    0.5534 N.2       1 ATP        -0.6280
     25 C5         -2.9295   -2.9976    0.0567 C.ar      1 ATP         0.2109
     26 C6         -3.2152   -4.1411   -0.7786 C.ar      1 ATP         0.6180
     27 N6         -4.4238   -4.3865   -1.1456 N.2       1 ATP        -0.8319
     28 N1         -2.0349   -4.8186   -1.0521 N.pl3     1 ATP        -0.8664
     29 C2         -0.7728   -4.4501   -0.5916 C.ar      1 ATP         0.5952
     30 N3         -0.4885   -3.4234    0.1630 N.2       1 ATP        -0.5599
     31 C4         -1.6274   -2.7377    0.4492 C.ar      1 ATP         0.0076
     32 HOG3        2.2940    1.0407    7.9443 H         1 ATP         0.4101
     33 H5'1       -1.4800    1.9927    0.8146 H         1 ATP         0.0364
     34 H5'2       -0.1367    3.1040    1.1872 H         1 ATP         0.0364
     35 H4'         0.0403    1.7078    3.4343 H         1 ATP         0.0945
     36 H3'         1.5907    1.4859    1.1353 H         1 ATP         0.0703
     37 HO3'        2.1521    0.9800    3.3017 H         1 ATP         0.4099
     38 H2'        -0.0017    0.0018    0.0005 H         1 ATP         0.0676
     39 HO2'        1.7495   -1.7243    1.4324 H         1 ATP         0.4291
     40 H1'        -0.1998   -1.6319    2.6178 H         1 ATP         0.0950
     41 H8         -3.3806   -0.3795    1.7893 H         1 ATP         0.1135
     42 HN62       -4.4384   -5.2300   -1.7295 H         1 ATP         0.3588
     43 H2          0.0180   -5.1355   -0.9348 H         1 ATP         0.0302
     44 H44        -2.0977   -5.6477   -1.6374 H         1 ATP         0.4215
@<TRIPOS>BOND
     1    1    2 2
     2    1    3 1
     3    1    4 1
     4    1    8 1
     5    4   32 1
     6    5    6 2
     7    5    7 1
     8    5    8 1
     9    5   12 1
    10    9   10 2
    11    9   11 1
    12    9   12 1
    13    9   13 1
    14   13   14 1
    15   14   15 1
    16   14   33 1
    17   14   34 1
    18   15   16 1
    19   15   17 1
    20   15   35 1
    21   16   21 1
    22   17   18 1
    23   17   19 1
    24   17   36 1
    25   18   37 1
    26   19   20 1
    27   19   21 1
    28   19   38 1
    29   20   39 1
    30   21   22 1
    31   21   40 1
    32   22   23 ar
    33   22   31 ar
    34   23   24 ar
    35   23   41 1
    36   24   25 ar
    37   25   26 ar
    38   25   31 ar
    39   26   27 2
    40   26   28 ar
    41   27   42 1
    42   28   29 ar
    43   28   44 1
    44   29   30 ar
    45   29   43 1
    46   30   31 ar
@<TRIPOS>SUBSTRUCTURE
     1 ATP         1 GROUP 0 A     ****
@<TRIPOS>MOLECULE
[[[3,4-dihydroxy-5-(6-imino-1~{H}-purin-9-yl)tetrahydrofuran-2-yl]methoxy-oxido-phosphoryl]oxy-oxido-phosphoryl] hydrogen phosphate
   44    46     1     0     0
SMALL
USER_CHARGES

@<TRIPOS>ATOM
      1 PG         -6.0462   -1.2152    2.1807 P.3       1 ATP         1.5257
      2 O1G        -7.3191   -0.7127    2.8246 O.co2     1 ATP        -0.8737
      3 O2G        -5.5611   -2.6283    2.4166 O.co2     1 ATP        -0.8737
      4 O3G        -6.1449   -0.9630    0.5706 O.3       1 ATP        -0.7971
      5 PB         -4.1224    0.1715    3.9470 P.3       1 ATP         1.6824
      6 O1B        -5.1302    0.8686    4.8336 O.co2     1 ATP        -0.8925
      7 O2B        -3.3717   -1.0512    4.4253 O.co2     1 ATP        -0.8925
      8 O3B        -4.8337   -0.1764    2.5192 O.3       1 ATP        -0.8047
      9 PA         -3.2890    2.7005    2.6567 P.3       1 ATP         1.5908
     10 O1A        -3.9939    3.6421    3.6090 O.co2     1 ATP        -0.8932
     11 O2A        -3.8602    2.4175    1.2844 O.co2     1 ATP        -0.8932
     12 O3A        -3.0427    1.2741    3.4147 O.3       1 ATP        -0.8088
     13 O5'        -1.7336    3.1724    2.4750 O.3       1 ATP        -0.5646
     14 C5'        -0.8811    2.4285    1.6206 C.3       1 ATP         0.2204
     15 C4'        -0.1994    1.3333    2.4288 C.3       1 ATP         0.0965
     16 O4'        -1.1285    0.2356    2.5840 O.3       1 ATP        -0.3907
     17 C3'         1.0324    0.7610    1.7344 C.3       1 ATP         0.0763
     18 O3'         1.9175    0.2377    2.7247 O.3       1 ATP        -0.5884
     19 C2'         0.4468   -0.3802    0.9263 C.3       1 ATP         0.0784
     20 O2'         1.3993   -1.3703    0.5961 O.3       1 ATP        -0.6085
     21 C1'        -0.6159   -0.9100    1.8769 C.3       1 ATP         0.2186
     22 N9         -1.7127   -1.6108    1.2130 N.pl3     1 ATP        -0.1699
     23 C8         -2.5485   -1.0808    0.2609 C.ar      1 ATP         0.4438
     24 N7         -3.4476   -1.9486   -0.1593 N.2       1 ATP        -0.6280
     25 C5         -3.1762   -3.0816    0.5530 C.ar      1 ATP         0.2109
     26 C6         -3.8510   -4.3579    0.5006 C.ar      1 ATP         0.6180
     27 N6         -4.8468   -4.5293   -0.2961 N.2       1 ATP        -0.8319
     28 N1         -3.2499   -5.2342    1.3937 N.pl3     1 ATP        -0.8664
     29 C2         -2.1646   -4.9275    2.2116 C.ar      1 ATP         0.5952
     30 N3         -1.5382   -3.7840    2.2778 N.2       1 ATP        -0.5599
     31 C4         -2.1054   -2.9018    1.4120 C.ar      1 ATP         0.0076
     32 HOG3       -6.2547   -0.0432    0.2479 H         1 ATP         0.4101
     33 H5'1       -1.4800    1.9927    0.8146 H         1 ATP         0.0364
     34 H5'2       -0.1367    3.1040    1.1872 H         1 ATP         0.0364
     35 H4'         0.0403    1.7078    3.4343 H         1 ATP         0.0945
     36 H3'         1.5907    1.4859    1.1353 H         1 ATP         0.0703
     37 HO3'        2.1521    0.9800    3.3017 H         1 ATP         0.4099
     38 H2'        -0.0017    0.0018    0.0005 H         1 ATP         0.0676
     39 HO2'        0.9369   -2.0558    0.0825 H         1 ATP         0.4291
     40 H1'        -0.1998   -1.6319    2.6178 H         1 ATP         0.0950
     41 H8         -2.4515   -0.0599   -0.0829 H         1 ATP         0.1135
     42 HN62       -5.1990   -5.4882   -0.2005 H         1 ATP         0.3588
     43 H2         -1.8555   -5.7783    2.8388 H         1 ATP         0.0302
     44 H44        -3.6312   -6.1750    1.4526 H         1 ATP         0.4215
@<TRIPOS>BOND
     1    1    2 2
     2    1    3 1
     3    1    4 1
     4    1    8 1
     5    4   32 1
     6    5    6 2
     7    5    7 1
     8    5    8 1
     9    5   12 1
    10    9   10 2
    11    9   11 1
    12    9   12 1
    13    9   13 1
    14   13   14 1
    15   14   15 1
    16   14   33 1
    17   14   34 1
    18   15   16 1
    19   15   17 1
    20   15   35 1
    21   16   21 1
    22   17   18 1
    23   17   19 1
    24   17   36 1
    25   18   37 1
    26   19   20 1
    27   19   21 1
    28   19   38 1
    29   20   39 1
    30   21   22 1
    31   21   40 1
    32   22   23 ar
    33   22   31 ar
    34   23   24 ar
    35   23   41 1
    36   24   25 ar
    37   25   26 ar
    38   25   31 ar
    39   26   27 2
    40   26   28 ar
    41   27   42 1
    42   28   29 ar
    43   28   44 1
    44   29   30 ar
    45   29   43 1
    46   30   31 ar
@<TRIPOS>SUBSTRUCTURE
     1 ATP         1 GROUP 0 A     ****
@<TRIPOS>MOLECULE
[[[3,4-dihydroxy-5-(6-imino-1~{H}-purin-9-yl)tetrahydrofuran-2-yl]methoxy-oxido-phosphoryl]oxy-oxido-phosphoryl] hydrogen phosphate
   44    46     1     0     0
SMALL
USER_CHARGES

@<TRIPOS>ATOM
      1 PG         -1.9599   -0.7436    5.7440 P.3       1 ATP         1.5257
      2 O1G        -2.6715   -0.5150    7.0588 O.co2     1 ATP        -0.8737
      3 O2G        -0.8816    0.2046    5.2687 O.co2     1 ATP        -0.8737
      4 O3G        -1.3557   -2.2605    5.7381 O.3       1 ATP        -0.7971
      5 PB         -4.1224    0.1715    3.9470 P.3       1 ATP         1.6824
      6 O1B        -4.8150   -0.4449    2.7521 O.co2     1 ATP        -0.8925
      7 O2B        -4.9138    0.7773    5.0847 O.co2     1 ATP        -0.8925
      8 O3B        -3.0714   -0.9163    4.5614 O.3       1 ATP        -0.8047
      9 PA         -3.2890    2.7005    2.6567 P.3       1 ATP         1.5908
     10 O1A        -3.9939    3.6421    3.6090 O.co2     1 ATP        -0.8932
     11 O2A        -3.8602    2.4175    1.2844 O.co2     1 ATP        -0.8932
     12 O3A        -3.0427    1.2741    3.4147 O.3       1 ATP        -0.8088
     13 O5'        -1.7336    3.1724    2.4750 O.3       1 ATP        -0.5646
     14 C5'        -0.8811    2.4285    1.6206 C.3       1 ATP         0.2204
     15 C4'        -0.1994    1.3333    2.4288 C.3       1 ATP         0.0965
     16 O4'        -1.1285    0.2356    2.5840 O.3       1 ATP        -0.3907
     17 C3'         1.0324    0.7610    1.7344 C.3       1 ATP         0.0763
     18 O3'         1.9175    0.2377    2.7247 O.3       1 ATP        -0.5884
     19 C2'         0.4468   -0.3802    0.9263 C.3       1 ATP         0.0784
     20 O2'         1.3993   -1.3703    0.5961 O.3       1 ATP        -0.6085
     21 C1'        -0.6159   -0.9100    1.8769 C.3       1 ATP         0.2186
     22 N9         -1.7127   -1.6108    1.2130 N.pl3     1 ATP        -0.1699
     23 C8         -2.5485   -1.0808    0.2609 C.ar      1 ATP         0.4438
     24 N7         -3.4476   -1.9486   -0.1593 N.2       1 ATP        -0.6280
     25 C5         -3.1762   -3.0816    0.5530 C.ar      1 ATP         0.2109
     26 C6         -3.8510   -4.3579    0.5006 C.ar      1 ATP         0.6180
     27 N6         -4.8468   -4.5293   -0.2961 N.2       1 ATP        -0.8319
     28 N1         -3.2499   -5.2342    1.3937 N.pl3     1 ATP        -0.8664
     29 C2         -2.1646   -4.9275    2.2116 C.ar      1 ATP         0.5952
     30 N3         -1.5382   -3.7840    2.2778 N.2       1 ATP        -0.5599
     31 C4         -2.1054   -2.9018    1.4120 C.ar      1 ATP         0.0076
     32 HOG3       -0.8618   -2.5633    4.9465 H         1 ATP         0.4101
     33 H5'1       -1.4800    1.9927    0.8146 H         1 ATP         0.0364
     34 H5'2       -0.1367    3.1040    1.1872 H         1 ATP         0.0364
     35 H4'         0.0403    1.7078    3.4343 H         1 ATP         0.0945
     36 H3'         1.5907    1.4859    1.1353 H         1 ATP         0.0703
     37 HO3'        2.1521    0.9800    3.3017 H         1 ATP         0.4099
     38 H2'        -0.0017    0.0018    0.0005 H         1 ATP         0.0676
     39 HO2'        0.9369   -2.0558    0.0825 H         1 ATP         0.4291
     40 H1'        -0.1998   -1.6319    2.6178 H         1 ATP         0.0950
     41 H8         -2.4515   -0.0599   -0.0829 H         1 ATP         0.1135
     42 HN62       -5.1990   -5.4882   -0.2005 H         1 ATP         0.3588
     43 H2         -1.8555   -5.7783    2.8388 H         1 ATP         0.0302
     44 H44        -3.6312   -6.1750    1.4526 H         1 ATP         0.4215
@<TRIPOS>BOND
     1    1    2 2
     2    1    3 1
     3    1    4 1
     4    1    8 1
     5    4   32 1
     6    5    6 2
     7    5    7 1
     8    5    8 1
     9    5   12 1
    10    9   10 2
    11    9   11 1
    12    9   12 1
    13    9   13 1
    14   13   14 1
    15   14   15 1
    16   14   33 1
    17   14   34 1
    18   15   16 1
    19   15   17 1
    20   15   35 1
    21   16   21 1
    22   17   18 1
    23   17   19 1
    24   17   36 1
    25   18   37 1
    26   19   20 1
    27   19   21 1
    28   19   38 1
    29   20   39 1
    30   21   22 1
    31   21   40 1
    32   22   23 ar
    33   22   31 ar
    34   23   24 ar
    35   23   41 1
    36   24   25 ar
    37   25   26 ar
    38   25   31 ar
    39   26   27 2
    40   26   28 ar
    41   27   42 1
    42   28   29 ar
    43   28   44 1
    44   29   30 ar
    45   29   43 1
    46   30   31 ar
@<TRIPOS>SUBSTRUCTURE
     1 ATP         1 GROUP 0 A     ****
@<TRIPOS>MOLECULE
[[[3,4-dihydroxy-5-(6-imino-1~{H}-purin-9-yl)tetrahydrofuran-2-yl]methoxy-oxido-phosphoryl]oxy-oxido-phosphoryl] hydrogen phosphate
   44    46     1     0     0
SMALL
USER_CHARGES

@<TRIPOS>ATOM
      1 PG         -6.2056    0.7653    5.9598 P.3       1 ATP         1.5257
      2 O1G        -6.7000    2.0371    6.6121 O.co2     1 ATP        -0.8737
      3 O2G        -5.8632   -0.4517    6.7900 O.co2     1 ATP        -0.8737
      4 O3G        -7.2756    0.3232    4.8084 O.3       1 ATP        -0.7971
      5 PB         -4.1224    0.1715    3.9470 P.3       1 ATP         1.6824
      6 O1B        -3.3841   -0.8915    4.7296 O.co2     1 ATP        -0.8925
      7 O2B        -5.0447   -0.1947    2.8056 O.co2     1 ATP        -0.8925
      8 O3B        -4.9382    1.1212    4.9950 O.3       1 ATP        -0.8047
      9 PA         -3.2890    2.7005    2.6567 P.3       1 ATP         1.5908
     10 O1A        -3.9939    3.6421    3.6090 O.co2     1 ATP        -0.8932
     11 O2A        -3.8602    2.4175    1.2844 O.co2     1 ATP        -0.8932
     12 O3A        -3.0427    1.2741    3.4147 O.3       1 ATP        -0.8088
     13 O5'        -1.7336    3.1724    2.4750 O.3       1 ATP        -0.5646
     14 C5'        -0.8811    2.4285    1.6206 C.3       1 ATP         0.2204
     15 C4'        -0.1994    1.3333    2.4288 C.3       1 ATP         0.0965
     16 O4'        -1.1285    0.2356    2.5840 O.3       1 ATP        -0.3907
     17 C3'         1.0324    0.7610    1.7344 C.3       1 ATP         0.0763
     18 O3'         1.9175    0.2377    2.7247 O.3       1 ATP        -0.5884
     19 C2'         0.4468   -0.3802    0.9263 C.3       1 ATP         0.0784
     20 O2'         1.3993   -1.3703    0.5961 O.3       1 ATP        -0.6085
     21 C1'        -0.6159   -0.9100    1.8769 C.3       1 ATP         0.2186
     22 N9         -1.7127   -1.6108    1.2130 N.pl3     1 ATP        -0.1699
     23 C8         -2.5485   -1.0808    0.2609 C.ar      1 ATP         0.4438
     24 N7         -3.4476   -1.9486   -0.1593 N.2       1 ATP        -0.6280
     25 C5         -3.1762   -3.0816    0.5530 C.ar      1 ATP         0.2109
     26 C6         -3.8510   -4.3579    0.5006 C.ar      1 ATP         0.6180
     27 N6         -4.8468   -4.5293   -0.2961 N.2       1 ATP        -0.8319
     28 N1         -3.2499   -5.2342    1.3937 N.pl3     1 ATP        -0.8664
     29 C2         -2.1646   -4.9275    2.2116 C.ar      1 ATP         0.5952
     30 N3         -1.5382   -3.7840    2.2778 N.2       1 ATP        -0.5599
     31 C4         -2.1054   -2.9018    1.4120 C.ar      1 ATP         0.0076
     32 HOG3       -7.0947   -0.4901    4.2906 H         1 ATP         0.4101
     33 H5'1       -1.4800    1.9927    0.8146 H         1 ATP         0.0364
     34 H5'2       -0.1367    3.1040    1.1872 H         1 ATP         0.0364
     35 H4'         0.0403    1.7078    3.4343 H         1 ATP         0.0945
     36 H3'         1.5907    1.4859    1.1353 H         1 ATP         0.0703
     37 HO3'        2.6839   -0.1150    2.2479 H         1 ATP         0.4099
     38 H2'        -0.0017    0.0018    0.0005 H         1 ATP         0.0676
     39 HO2'        2.0953   -0.9375    0.0709 H         1 ATP         0.4291
     40 H1'        -0.1998   -1.6319    2.6178 H         1 ATP         0.0950
     41 H8         -2.4515   -0.0599   -0.0829 H         1 ATP         0.1135
     42 HN62       -5.1990   -5.4882   -0.2005 H         1 ATP         0.3588
     43 H2         -1.8555   -5.7783    2.8388 H         1 ATP         0.0302
     44 H44        -3.6312   -6.1750    1.4526 H         1 ATP         0.4215
@<TRIPOS>BOND
     1    1    2 2
     2    1    3 1
     3    1    4 1
     4    1    8 1
     5    4   32 1
     6    5    6 2
     7    5    7 1
     8    5    8 1
     9    5   12 1
    10    9   10 2
    11    9   11 1
    12    9   12 1
    13    9   13 1
    14   13   14 1
    15   14   15 1
    16   14   33 1
    17   14   34 1
    18   15   16 1
    19   15   17 1
    20   15   35 1
    21   16   21 1
    22   17   18 1
    23   17   19 1
    24   17   36 1
    25   18   37 1
    26   19   20 1
    27   19   21 1
    28   19   38 1
    29   20   39 1
    30   21   22 1
    31   21   40 1
    32   22   23 ar
    33   22   31 ar
    34   23   24 ar
    35   23   41 1
    36   24   25 ar
    37   25   26 ar
    38   25   31 ar
    39   26   27 2
    40   26   28 ar
    41   27   42 1
    42   28   29 ar
    43   28   44 1
    44   29   30 ar
    45   29   43 1
    46   30   31 ar
@<TRIPOS>SUBSTRUCTURE
     1 ATP         1 GROUP 0 A     ****
@<TRIPOS>MOLECULE
[[[3,4-dihydroxy-5-(6-imino-1~{H}-purin-9-yl)tetrahydrofuran-2-yl]methoxy-oxido-phosphoryl]oxy-oxido-phosphoryl] hydrogen phosphate
   44    46     1     0     0
SMALL
USER_CHARGES

@<TRIPOS>ATOM
      1 PG          6.1026    0.7633   -3.7637 P.3       1 ATP         1.5257
      2 O1G         5.1114    0.6720   -4.9023 O.co2     1 ATP        -0.8737
      3 O2G         5.7081    0.3733   -2.3566 O.co2     1 ATP        -0.8737
      4 O3G         7.4444   -0.0707   -4.1759 O.3       1 ATP        -0.7971
      5 PB          6.0370    3.6974   -3.4022 P.3       1 ATP         1.6824
      6 O1B         7.1071    4.7648   -3.3487 O.co2     1 ATP        -0.8925
      7 O2B         4.8176    3.8540   -4.2832 O.co2     1 ATP        -0.8925
      8 O3B         6.7436    2.2640   -3.7366 O.3       1 ATP        -0.8047
      9 PA          4.7368    4.3145   -0.8169 P.3       1 ATP         1.5908
     10 O1A         3.3493    4.5804   -1.3596 O.co2     1 ATP        -0.8932
     11 O2A         5.6410    5.4580   -0.4113 O.co2     1 ATP        -0.8932
     12 O3A         5.5450    3.3729   -1.8798 O.3       1 ATP        -0.8088
     13 O5'         4.6405    3.2699    0.4378 O.3       1 ATP        -0.5646
     14 C5'         4.0922    1.9801    0.2227 C.3       1 ATP         0.2204
     15 C4'         2.5944    2.0310    0.4653 C.3       1 ATP         0.0965
     16 O4'         1.9327    2.5740   -0.6889 O.3       1 ATP        -0.3907
     17 C3'         1.9685    0.6634    0.6767 C.3       1 ATP         0.0763
     18 O3'         2.1425    0.1975    1.9977 O.3       1 ATP        -0.5884
     19 C2'         0.5176    0.9128    0.3099 C.3       1 ATP         0.0784
     20 O2'        -0.2103    1.4454    1.4152 O.3       1 ATP        -0.6085
     21 C1'         0.6219    1.9765   -0.7844 C.3       1 ATP         0.2186
     22 N9          0.4237    1.4496   -2.1357 N.pl3     1 ATP        -0.1699
     23 C8          1.4069    0.9710   -2.9662 C.ar      1 ATP         0.4438
     24 N7          0.9316    0.5623   -4.1260 N.2       1 ATP        -0.6280
     25 C5         -0.4120    0.7884   -4.0344 C.ar      1 ATP         0.2109
     26 C6         -1.4353    0.5283   -5.0204 C.ar      1 ATP         0.6180
     27 N6         -1.1199    0.0176   -6.1586 N.2       1 ATP        -0.8319
     28 N1         -2.6704    0.9095   -4.5147 N.pl3     1 ATP        -0.8664
     29 C2         -2.8863    1.4571   -3.2520 C.ar      1 ATP         0.5952
     30 N3         -1.9805    1.7017   -2.3442 N.2       1 ATP        -0.5599
     31 C4         -0.7561    1.3381   -2.8112 C.ar      1 ATP         0.0076
     32 HOG3        8.1869   -0.1066   -3.5358 H         1 ATP         0.4101
     33 H5'1        4.3028    1.6728   -0.8066 H         1 ATP         0.0364
     34 H5'2        4.5677    1.2738    0.9106 H         1 ATP         0.0364
     35 H4'         2.3752    2.7029    1.3156 H         1 ATP         0.0945
     36 H3'         2.4336   -0.1217   -0.0015 H         1 ATP         0.0703
     37 HO3'        1.7160   -0.6716    2.0397 H         1 ATP         0.4099
     38 H2'         0.0316    0.0155   -0.0339 H         1 ATP         0.0676
     39 HO2'       -0.1608    0.7921    2.1351 H         1 ATP         0.4291
     40 H1'        -0.1474    2.7798   -0.6651 H         1 ATP         0.0950
     41 H8          2.4466    0.9468   -2.6694 H         1 ATP         0.1135
     42 HN62       -1.9661   -0.0965   -6.7275 H         1 ATP         0.3588
     43 H2         -3.9481    1.6825   -3.0660 H         1 ATP         0.0302
     44 H44        -3.4814    0.7753   -5.1133 H         1 ATP         0.4215
@<TRIPOS>BOND
     1    1    2 2
     2    1    3 1
     3    1    4 1
     4    1    8 1
     5    4   32 1
     6    5    6 2
     7    5    7 1
     8    5    8 1
     9    5   12 1
    10    9   10 2
    11    9   11 1
    12    9   12 1
    13    9   13 1
    14   13   14 1
    15   14   15 1
    16   14   33 1
    17   14   34 1
    18   15   16 1
    19   15   17 1
    20   15   35 1
    21   16   21 1
    22   17   18 1
    23   17   19 1
    24   17   36 1
    25   18   37 1
    26   19   20 1
    27   19   21 1
    28   19   38 1
    29   20   39 1
    30   21   22 1
    31   21   40 1
    32   22   23 ar
    33   22   31 ar
    34   23   24 ar
    35   23   41 1
    36   24   25 ar
    37   25   26 ar
    38   25   31 ar
    39   26   27 2
    40   26   28 ar
    41   27   42 1
    42   28   29 ar
    43   28   44 1
    44   29   30 ar
    45   29   43 1
    46   30   31 ar
@<TRIPOS>SUBSTRUCTURE
     1 ATP         1 GROUP 0 A     ****
@<TRIPOS>MOLECULE
[[[3,4-dihydroxy-5-(6-imino-1~{H}-purin-9-yl)tetrahydrofuran-2-yl]methoxy-oxido-phosphoryl]oxy-oxido-phosphoryl] hydrogen phosphate
   44    46     1     0     0
SMALL
USER_CHARGES

@<TRIPOS>ATOM
      1 PG          5.6753   -4.4652    2.8321 P.3       1 ATP         1.5257
      2 O1G         6.2208   -4.2932    4.2322 O.co2     1 ATP        -0.8737
      3 O2G         6.4748   -5.1858    1.7695 O.co2     1 ATP        -0.8737
      4 O3G         4.2009   -5.1595    2.9315 O.3       1 ATP        -0.7971
      5 PB          4.4388   -2.6254    0.8751 P.3       1 ATP         1.6824
      6 O1B         5.3385   -2.9454   -0.2978 O.co2     1 ATP        -0.8925
      7 O2B         3.0292   -3.1683    0.9521 O.co2     1 ATP        -0.8925
      8 O3B         5.2228   -3.0069    2.2555 O.3       1 ATP        -0.8047
      9 PA          5.6073    0.0705    1.2242 P.3       1 ATP         1.5908
     10 O1A         6.3913    0.1078   -0.0697 O.co2     1 ATP        -0.8932
     11 O2A         6.3031   -0.1872    2.5430 O.co2     1 ATP        -0.8932
     12 O3A         4.3874   -1.0053    1.0684 O.3       1 ATP        -0.8088
     13 O5'         4.7294    1.4427    1.3696 O.3       1 ATP        -0.5646
     14 C5'         4.0922    1.9801    0.2227 C.3       1 ATP         0.2204
     15 C4'         2.5944    2.0310    0.4653 C.3       1 ATP         0.0965
     16 O4'         1.9327    2.5740   -0.6889 O.3       1 ATP        -0.3907
     17 C3'         1.9685    0.6634    0.6767 C.3       1 ATP         0.0763
     18 O3'         2.1425    0.1975    1.9977 O.3       1 ATP        -0.5884
     19 C2'         0.5176    0.9128    0.3099 C.3       1 ATP         0.0784
     20 O2'        -0.2103    1.4454    1.4152 O.3       1 ATP        -0.6085
     21 C1'         0.6219    1.9765   -0.7844 C.3       1 ATP         0.2186
     22 N9          0.4237    1.4496   -2.1357 N.pl3     1 ATP        -0.1699
     23 C8          1.4069    0.9710   -2.9662 C.ar      1 ATP         0.4438
     24 N7          0.9316    0.5623   -4.1260 N.2       1 ATP        -0.6280
     25 C5         -0.4120    0.7884   -4.0344 C.ar      1 ATP         0.2109
     26 C6         -1.4353    0.5283   -5.0204 C.ar      1 ATP         0.6180
     27 N6         -1.1199    0.0176   -6.1586 N.2       1 ATP        -0.8319
     28 N1         -2.6704    0.9095   -4.5147 N.pl3     1 ATP        -0.8664
     29 C2         -2.8863    1.4571   -3.2520 C.ar      1 ATP         0.5952
     30 N3         -1.9805    1.7017   -2.3442 N.2       1 ATP        -0.5599
     31 C4         -0.7561    1.3381   -2.8112 C.ar      1 ATP         0.0076
     32 HOG3        3.7121   -5.3386    2.1001 H         1 ATP         0.4101
     33 H5'1        4.4843    2.9854    0.0380 H         1 ATP         0.0364
     34 H5'2        4.3191    1.3446   -0.6392 H         1 ATP         0.0364
     35 H4'         2.3752    2.7029    1.3156 H         1 ATP         0.0945
     36 H3'         2.4336   -0.1217   -0.0015 H         1 ATP         0.0703
     37 HO3'        1.7160   -0.6716    2.0397 H         1 ATP         0.4099
     38 H2'         0.0316    0.0155   -0.0339 H         1 ATP         0.0676
     39 HO2'       -0.1608    0.7921    2.1351 H         1 ATP         0.4291
     40 H1'        -0.1474    2.7798   -0.6651 H         1 ATP         0.0950
     41 H8          2.4466    0.9468   -2.6694 H         1 ATP         0.1135
     42 HN62       -1.9661   -0.0965   -6.7275 H         1 ATP         0.3588
     43 H2         -3.9481    1.6825   -3.0660 H         1 ATP         0.0302
     44 H44        -3.4814    0.7753   -5.1133 H         1 ATP         0.4215
@<TRIPOS>BOND
     1    1    2 2
     2    1    3 1
     3    1    4 1
     4    1    8 1
     5    4   32 1
     6    5    6 2
     7    5    7 1
     8    5    8 1
     9    5   12 1
    10    9   10 2
    11    9   11 1
    12    9   12 1
    13    9   13 1
    14   13   14 1
    15   14   15 1
    16   14   33 1
    17   14   34 1
    18   15   16 1
    19   15   17 1
    20   15   35 1
    21   16   21 1
    22   17   18 1
    23   17   19 1
    24   17   36 1
    25   18   37 1
    26   19   20 1
    27   19   21 1
    28   19   38 1
    29   20   39 1
    30   21   22 1
    31   21   40 1
    32   22   23 ar
    33   22   31 ar
    34   23   24 ar
    35   23   41 1
    36   24   25 ar
    37   25   26 ar
    38   25   31 ar
    39   26   27 2
    40   26   28 ar
    41   27   42 1
    42   28   29 ar
    43   28   44 1
    44   29   30 ar
    45   29   43 1
    46   30   31 ar
@<TRIPOS>SUBSTRUCTURE
     1 ATP         1 GROUP 0 A     ****
@<TRIPOS>MOLECULE
[[[3,4-dihydroxy-5-(6-imino-1~{H}-purin-9-yl)tetrahydrofuran-2-yl]methoxy-oxido-phosphoryl]oxy-oxido-phosphoryl] hydrogen phosphate
   44    46     1     0     0
SMALL
USER_CHARGES

@<TRIPOS>ATOM
      1 PG          5.1662    1.6312   -1.0005 P.3       1 ATP         1.5257
      2 O1G         4.9758    1.4441   -2.4891 O.co2     1 ATP        -0.8737
      3 O2G         5.6439    0.4913   -0.1286 O.co2     1 ATP        -0.8737
      4 O3G         6.1475    2.9140   -0.7603 O.3       1 ATP        -0.7971
      5 PB          2.9416    3.5685   -0.7969 P.3       1 ATP         1.6824
      6 O1B         3.7724    4.7988   -0.5078 O.co2     1 ATP        -0.8925
      7 O2B         2.3430    3.3313   -2.1654 O.co2     1 ATP        -0.8925
      8 O3B         3.7956    2.2464   -0.3628 O.3       1 ATP        -0.8047
      9 PA          0.4655    4.4361    0.5710 P.3       1 ATP         1.5908
     10 O1A        -0.4570    4.3402   -0.6249 O.co2     1 ATP        -0.8932
     11 O2A         0.9689    5.7789    1.0539 O.co2     1 ATP        -0.8932
     12 O3A         1.7548    3.4645    0.3191 O.3       1 ATP        -0.8088
     13 O5'        -0.2062    3.6557    1.8417 O.3       1 ATP        -0.5646
     14 C5'        -0.8811    2.4285    1.6206 C.3       1 ATP         0.2204
     15 C4'        -0.1994    1.3333    2.4288 C.3       1 ATP         0.0965
     16 O4'        -1.1285    0.2356    2.5840 O.3       1 ATP        -0.3907
     17 C3'         1.0324    0.7610    1.7344 C.3       1 ATP         0.0763
     18 O3'         1.9175    0.2377    2.7247 O.3       1 ATP        -0.5884
     19 C2'         0.4468   -0.3802    0.9263 C.3       1 ATP         0.0784
     20 O2'         1.3993   -1.3703    0.5961 O.3       1 ATP        -0.6085
     21 C1'        -0.6159   -0.9100    1.8769 C.3       1 ATP         0.2186
     22 N9         -1.7127   -1.6108    1.2130 N.pl3     1 ATP        -0.1699
     23 C8         -2.0868   -2.9137    1.4327 C.ar      1 ATP         0.4438
     24 N7         -3.1125   -3.2756    0.6878 N.2       1 ATP        -0.6280
     25 C5         -3.4079   -2.1580   -0.0391 C.ar      1 ATP         0.2109
     26 C6         -4.4483   -1.9775   -1.0249 C.ar      1 ATP         0.6180
     27 N6         -5.2418   -2.9492   -1.3113 N.2       1 ATP        -0.8319
     28 N1         -4.3937   -0.6823   -1.5211 N.pl3     1 ATP        -0.8664
     29 C2         -3.4770    0.2901   -1.1271 C.ar      1 ATP         0.5952
     30 N3         -2.5289    0.1525   -0.2402 N.2       1 ATP        -0.5599
     31 C4         -2.5564   -1.1096    0.2655 C.ar      1 ATP         0.0076
     32 HOG3        6.3689    3.1663    0.1614 H         1 ATP         0.4101
     33 H5'1       -1.9256    2.5380    1.9293 H         1 ATP         0.0364
     34 H5'2       -0.8474    2.1930    0.5521 H         1 ATP         0.0364
     35 H4'         0.0403    1.7078    3.4343 H         1 ATP         0.0945
     36 H3'         1.5907    1.4859    1.1353 H         1 ATP         0.0703
     37 HO3'        2.6839   -0.1150    2.2479 H         1 ATP         0.4099
     38 H2'        -0.0017    0.0018    0.0005 H         1 ATP         0.0676
     39 HO2'        0.9369   -2.0558    0.0825 H         1 ATP         0.4291
     40 H1'        -0.1998   -1.6319    2.6178 H         1 ATP         0.0950
     41 H8         -1.5740   -3.5449    2.1457 H         1 ATP         0.1135
     42 HN62       -5.9117   -2.6433   -2.0256 H         1 ATP         0.3588
     43 H2         -3.6225    1.2454   -1.6553 H         1 ATP         0.0302
     44 H44        -5.0794   -0.4231   -2.2258 H         1 ATP         0.4215
@<TRIPOS>BOND
     1    1    2 2
     2    1    3 1
     3    1    4 1
     4    1    8 1
     5    4   32 1
     6    5    6 2
     7    5    7 1
     8    5    8 1
     9    5   12 1
    10    9   10 2
    11    9   11 1
    12    9   12 1
    13    9   13 1
    14   13   14 1
    15   14   15 1
    16   14   33 1
    17   14   34 1
    18   15   16 1
    19   15   17 1
    20   15   35 1
    21   16   21 1
    22   17   18 1
    23   17   19 1
    24   17   36 1
    25   18   37 1
    26   19   20 1
    27   19   21 1
    28   19   38 1
    29   20   39 1
    30   21   22 1
    31   21   40 1
    32   22   23 ar
    33   22   31 ar
    34   23   24 ar
    35   23   41 1
    36   24   25 ar
    37   25   26 ar
    38   25   31 ar
    39   26   27 2
    40   26   28 ar
    41   27   42 1
    42   28   29 ar
    43   28   44 1
    44   29   30 ar
    45   29   43 1
    46   30   31 ar
@<TRIPOS>SUBSTRUCTURE
     1 ATP         1 GROUP 0 A     ****
@<TRIPOS>MOLECULE
[[[3,4-dihydroxy-5-(6-imino-1~{H}-purin-9-yl)tetrahydrofuran-2-yl]methoxy-oxido-phosphoryl]oxy-oxido-phosphoryl] hydrogen phosphate
   44    46     1     0     0
SMALL
USER_CHARGES

@<TRIPOS>ATOM
      1 PG          4.7685    5.8822   -1.0273 P.3       1 ATP         1.5257
      2 O1G         4.3926    6.3050   -2.4299 O.co2     1 ATP        -0.8737
      3 O2G         6.0640    5.1497   -0.7572 O.co2     1 ATP        -0.8737
      4 O3G         4.7012    7.1922   -0.0551 O.3       1 ATP        -0.7971
      5 PB          2.9416    3.5685   -0.7969 P.3       1 ATP         1.6824
      6 O1B         2.3105    3.6736   -2.1674 O.co2     1 ATP        -0.8925
      7 O2B         3.9861    2.5174   -0.4939 O.co2     1 ATP        -0.8925
      8 O3B         3.5350    5.0314   -0.3804 O.3       1 ATP        -0.8047
      9 PA          0.4655    4.4361    0.5710 P.3       1 ATP         1.5908
     10 O1A        -0.4570    4.3402   -0.6249 O.co2     1 ATP        -0.8932
     11 O2A         0.9689    5.7789    1.0539 O.co2     1 ATP        -0.8932
     12 O3A         1.7548    3.4645    0.3191 O.3       1 ATP        -0.8088
     13 O5'        -0.2062    3.6557    1.8417 O.3       1 ATP        -0.5646
     14 C5'        -0.8811    2.4285    1.6206 C.3       1 ATP         0.2204
     15 C4'        -0.1994    1.3333    2.4288 C.3       1 ATP         0.0965
     16 O4'        -1.1285    0.2356    2.5840 O.3       1 ATP        -0.3907
     17 C3'         1.0324    0.7610    1.7344 C.3       1 ATP         0.0763
     18 O3'         1.9175    0.2377    2.7247 O.3       1 ATP        -0.5884
     19 C2'         0.4468   -0.3802    0.9263 C.3       1 ATP         0.0784
     20 O2'         1.3993   -1.3703    0.5961 O.3       1 ATP        -0.6085
     21 C1'        -0.6159   -0.9100    1.8769 C.3       1 ATP         0.2186
     22 N9         -1.7127   -1.6108    1.2130 N.pl3     1 ATP        -0.1699
     23 C8         -2.5485   -1.0808    0.2609 C.ar      1 ATP         0.4438
     24 N7         -3.4476   -1.9486   -0.1593 N.2       1 ATP        -0.6280
     25 C5         -3.1762   -3.0816    0.5530 C.ar      1 ATP         0.2109
     26 C6         -3.8510   -4.3579    0.5006 C.ar      1 ATP         0.6180
     27 N6         -4.8468   -4.5293   -0.2961 N.2       1 ATP        -0.8319
     28 N1         -3.2499   -5.2342    1.3937 N.pl3     1 ATP        -0.8664
     29 C2         -2.1646   -4.9275    2.2116 C.ar      1 ATP         0.5952
     30 N3         -1.5382   -3.7840    2.2778 N.2       1 ATP        -0.5599
     31 C4         -2.1054   -2.9018    1.4120 C.ar      1 ATP         0.0076
     32 HOG3        4.9201    7.0806    0.8946 H         1 ATP         0.4101
     33 H5'1       -1.9256    2.5380    1.9293 H         1 ATP         0.0364
     34 H5'2       -0.8474    2.1930    0.5521 H         1 ATP         0.0364
     35 H4'         0.0403    1.7078    3.4343 H         1 ATP         0.0945
     36 H3'         1.5907    1.4859    1.1353 H         1 ATP         0.0703
     37 HO3'        2.6839   -0.1150    2.2479 H         1 ATP         0.4099
     38 H2'        -0.0017    0.0018    0.0005 H         1 ATP         0.0676
     39 HO2'        0.9369   -2.0558    0.0825 H         1 ATP         0.4291
     40 H1'        -0.1998   -1.6319    2.6178 H         1 ATP         0.0950
     41 H8         -2.4515   -0.0599   -0.0829 H         1 ATP         0.1135
     42 HN62       -5.1990   -5.4882   -0.2005 H         1 ATP         0.3588
     43 H2         -1.8555   -5.7783    2.8388 H         1 ATP         0.0302
     44 H44        -3.6312   -6.1750    1.4526 H         1 ATP         0.4215
@<TRIPOS>BOND
     1    1    2 2
     2    1    3 1
     3    1    4 1
     4    1    8 1
     5    4   32 1
     6    5    6 2
     7    5    7 1
     8    5    8 1
     9    5   12 1
    10    9   10 2
    11    9   11 1
    12    9   12 1
    13    9   13 1
    14   13   14 1
    15   14   15 1
    16   14   33 1
    17   14   34 1
    18   15   16 1
    19   15   17 1
    20   15   35 1
    21   16   21 1
    22   17   18 1
    23   17   19 1
    24   17   36 1
    25   18   37 1
    26   19   20 1
    27   19   21 1
    28   19   38 1
    29   20   39 1
    30   21   22 1
    31   21   40 1
    32   22   23 ar
    33   22   31 ar
    34   23   24 ar
    35   23   41 1
    36   24   25 ar
    37   25   26 ar
    38   25   31 ar
    39   26   27 2
    40   26   28 ar
    41   27   42 1
    42   28   29 ar
    43   28   44 1
    44   29   30 ar
    45   29   43 1
    46   30   31 ar
@<TRIPOS>SUBSTRUCTURE
     1 ATP         1 GROUP 0 A     ****
@<TRIPOS>MOLECULE
[[[3,4-dihydroxy-5-(6-imino-1~{H}-purin-9-yl)tetrahydrofuran-2-yl]methoxy-oxido-phosphoryl]oxy-oxido-phosphoryl] hydrogen phosphate
   44    46     1     0     0
SMALL
USER_CHARGES

@<TRIPOS>ATOM
      1 PG         -4.1355    6.6437   -2.3437 P.3       1 ATP         1.5257
      2 O1G        -4.9886    5.8038   -3.2679 O.co2     1 ATP        -0.8737
      3 O2G        -2.9502    7.4207   -2.8720 O.co2     1 ATP        -0.8737
      4 O3G        -5.1090    7.6722   -1.5310 O.3       1 ATP        -0.7971
      5 PB         -4.5240    4.8101   -0.0567 P.3       1 ATP         1.6824
      6 O1B        -5.3815    5.7240    0.7901 O.co2     1 ATP        -0.8925
      7 O2B        -5.1301    3.6568   -0.8249 O.co2     1 ATP        -0.8925
      8 O3B        -3.6470    5.7225   -1.0881 O.3       1 ATP        -0.8047
      9 PA         -3.3347    3.2338    2.1468 P.3       1 ATP         1.5908
     10 O1A        -3.8074    1.8725    1.6847 O.co2     1 ATP        -0.8932
     11 O2A        -4.0244    3.9450    3.2906 O.co2     1 ATP        -0.8932
     12 O3A        -3.2997    4.2420    0.8615 O.3       1 ATP        -0.8088
     13 O5'        -1.7336    3.1724    2.4750 O.3       1 ATP        -0.5646
     14 C5'        -0.8811    2.4285    1.6206 C.3       1 ATP         0.2204
     15 C4'        -0.1994    1.3333    2.4288 C.3       1 ATP         0.0965
     16 O4'        -1.1285    0.2356    2.5840 O.3       1 ATP        -0.3907
     17 C3'         1.0324    0.7610    1.7344 C.3       1 ATP         0.0763
     18 O3'         1.9175    0.2377    2.7247 O.3       1 ATP        -0.5884
     19 C2'         0.4468   -0.3802    0.9263 C.3       1 ATP         0.0784
     20 O2'         1.3993   -1.3703    0.5961 O.3       1 ATP        -0.6085
     21 C1'        -0.6159   -0.9100    1.8769 C.3       1 ATP         0.2186
     22 N9         -1.7127   -1.6108    1.2130 N.pl3     1 ATP        -0.1699
     23 C8         -3.0370   -1.2489    1.2455 C.ar      1 ATP         0.4438
     24 N7         -3.8008   -2.0709    0.5534 N.2       1 ATP        -0.6280
     25 C5         -2.9295   -2.9976    0.0567 C.ar      1 ATP         0.2109
     26 C6         -3.2152   -4.1411   -0.7786 C.ar      1 ATP         0.6180
     27 N6         -4.4238   -4.3865   -1.1456 N.2       1 ATP        -0.8319
     28 N1         -2.0349   -4.8186   -1.0521 N.pl3     1 ATP        -0.8664
     29 C2         -0.7728   -4.4501   -0.5916 C.ar      1 ATP         0.5952
     30 N3         -0.4885   -3.4234    0.1630 N.2       1 ATP        -0.5599
     31 C4         -1.6274   -2.7377    0.4492 C.ar      1 ATP         0.0076
     32 HOG3       -4.7019    8.2895   -0.8865 H         1 ATP         0.4101
     33 H5'1       -1.4800    1.9927    0.8146 H         1 ATP         0.0364
     34 H5'2       -0.1367    3.1040    1.1872 H         1 ATP         0.0364
     35 H4'         0.0403    1.7078    3.4343 H         1 ATP         0.0945
     36 H3'         1.5907    1.4859    1.1353 H         1 ATP         0.0703
     37 HO3'        2.1521    0.9800    3.3017 H         1 ATP         0.4099
     38 H2'        -0.0017    0.0018    0.0005 H         1 ATP         0.0676
     39 HO2'        1.7495   -1.7243    1.4324 H         1 ATP         0.4291
     40 H1'        -0.1998   -1.6319    2.6178 H         1 ATP         0.0950
     41 H8         -3.3806   -0.3795    1.7893 H         1 ATP         0.1135
     42 HN62       -4.4384   -5.2300   -1.7295 H         1 ATP         0.3588
     43 H2          0.0180   -5.1355   -0.9348 H         1 ATP         0.0302
     44 H44        -2.0977   -5.6477   -1.6374 H         1 ATP         0.4215
@<TRIPOS>BOND
     1    1    2 2
     2    1    3 1
     3    1    4 1
     4    1    8 1
     5    4   32 1
     6    5    6 2
     7    5    7 1
     8    5    8 1
     9    5   12 1
    10    9   10 2
    11    9   11 1
    12    9   12 1
    13    9   13 1
    14   13   14 1
    15   14   15 1
    16   14   33 1
    17   14   34 1
    18   15   16 1
    19   15   17 1
    20   15   35 1
    21   16   21 1
    22   17   18 1
    23   17   19 1
    24   17   36 1
    25   18   37 1
    26   19   20 1
    27   19   21 1
    28   19   38 1
    29   20   39 1
    30   21   22 1
    31   21   40 1
    32   22   23 ar
    33   22   31 ar
    34   23   24 ar
    35   23   41 1
    36   24   25 ar
    37   25   26 ar
    38   25   31 ar
    39   26   27 2
    40   26   28 ar
    41   27   42 1
    42   28   29 ar
    43   28   44 1
    44   29   30 ar
    45   29   43 1
    46   30   31 ar
@<TRIPOS>SUBSTRUCTURE
     1 ATP         1 GROUP 0 A     ****
@<TRIPOS>MOLECULE
[[[3,4-dihydroxy-5-(6-imino-1~{H}-purin-9-yl)tetrahydrofuran-2-yl]methoxy-oxido-phosphoryl]oxy-oxido-phosphoryl] hydrogen phosphate
   44    46     1     0     0
SMALL
USER_CHARGES

@<TRIPOS>ATOM
      1 PG          7.9885    1.5137   -2.9943 P.3       1 ATP         1.5257
      2 O1G         7.5596    1.1090   -1.6016 O.co2     1 ATP        -0.8737
      3 O2G         9.2491    2.3196   -3.2159 O.co2     1 ATP        -0.8737
      4 O3G         8.0594    0.1740   -3.9250 O.3       1 ATP        -0.7971
      5 PB          6.0370    3.6974   -3.4022 P.3       1 ATP         1.6824
      6 O1B         7.1071    4.7648   -3.3487 O.co2     1 ATP        -0.8925
      7 O2B         4.8176    3.8540   -4.2832 O.co2     1 ATP        -0.8925
      8 O3B         6.7436    2.2640   -3.7366 O.3       1 ATP        -0.8047
      9 PA          4.7368    4.3145   -0.8169 P.3       1 ATP         1.5908
     10 O1A         3.3493    4.5804   -1.3596 O.co2     1 ATP        -0.8932
     11 O2A         5.6410    5.4580   -0.4113 O.co2     1 ATP        -0.8932
     12 O3A         5.5450    3.3729   -1.8798 O.3       1 ATP        -0.8088
     13 O5'         4.6405    3.2699    0.4378 O.3       1 ATP        -0.5646
     14 C5'         4.0922    1.9801    0.2227 C.3       1 ATP         0.2204
     15 C4'         2.5944    2.0310    0.4653 C.3       1 ATP         0.0965
     16 O4'         1.9327    2.5740   -0.6889 O.3       1 ATP        -0.3907
     17 C3'         1.9685    0.6634    0.6767 C.3       1 ATP         0.0763
     18 O3'         2.1425    0.1975    1.9977 O.3       1 ATP        -0.5884
     19 C2'         0.5176    0.9128    0.3099 C.3       1 ATP         0.0784
     20 O2'        -0.2103    1.4454    1.4152 O.3       1 ATP        -0.6085
     21 C1'         0.6219    1.9765   -0.7844 C.3       1 ATP         0.2186
     22 N9          0.4237    1.4496   -2.1357 N.pl3     1 ATP        -0.1699
     23 C8          1.4069    0.9710   -2.9662 C.ar      1 ATP         0.4438
     24 N7          0.9316    0.5623   -4.1260 N.2       1 ATP        -0.6280
     25 C5         -0.4120    0.7884   -4.0344 C.ar      1 ATP         0.2109
     26 C6         -1.4353    0.5283   -5.0204 C.ar      1 ATP         0.6180
     27 N6         -1.1199    0.0176   -6.1586 N.2       1 ATP        -0.8319
     28 N1         -2.6704    0.9095   -4.5147 N.pl3     1 ATP        -0.8664
     29 C2         -2.8863    1.4571   -3.2520 C.ar      1 ATP         0.5952
     30 N3         -1.9805    1.7017   -2.3442 N.2       1 ATP        -0.5599
     31 C4         -0.7561    1.3381   -2.8112 C.ar      1 ATP         0.0076
     32 HOG3        8.3251    0.2715   -4.8643 H         1 ATP         0.4101
     33 H5'1        4.3028    1.6728   -0.8066 H         1 ATP         0.0364
     34 H5'2        4.5677    1.2738    0.9106 H         1 ATP         0.0364
     35 H4'         2.3752    2.7029    1.3156 H         1 ATP         0.0945
     36 H3'         2.4336   -0.1217   -0.0015 H         1 ATP         0.0703
     37 HO3'        1.7138    0.8467    2.5755 H         1 ATP         0.4099
     38 H2'         0.0316    0.0155   -0.0339 H         1 ATP         0.0676
     39 HO2'       -1.1270    1.5823    1.1180 H         1 ATP         0.4291
     40 H1'        -0.1474    2.7798   -0.6651 H         1 ATP         0.0950
     41 H8          2.4466    0.9468   -2.6694 H         1 ATP         0.1135
     42 HN62       -1.9661   -0.0965   -6.7275 H         1 ATP         0.3588
     43 H2         -3.9481    1.6825   -3.0660 H         1 ATP         0.0302
     44 H44        -3.4814    0.7753   -5.1133 H         1 ATP         0.4215
@<TRIPOS>BOND
     1    1    2 2
     2    1    3 1
     3    1    4 1
     4    1    8 1
     5    4   32 1
     6    5    6 2
     7    5    7 1
     8    5    8 1
     9    5   12 1
    10    9   10 2
    11    9   11 1
    12    9   12 1
    13    9   13 1
    14   13   14 1
    15   14   15 1
    16   14   33 1
    17   14   34 1
    18   15   16 1
    19   15   17 1
    20   15   35 1
    21   16   21 1
    22   17   18 1
    23   17   19 1
    24   17   36 1
    25   18   37 1
    26   19   20 1
    27   19   21 1
    28   19   38 1
    29   20   39 1
    30   21   22 1
    31   21   40 1
    32   22   23 ar
    33   22   31 ar
    34   23   24 ar
    35   23   41 1
    36   24   25 ar
    37   25   26 ar
    38   25   31 ar
    39   26   27 2
    40   26   28 ar
    41   27   42 1
    42   28   29 ar
    43   28   44 1
    44   29   30 ar
    45   29   43 1
    46   30   31 ar
@<TRIPOS>SUBSTRUCTURE
     1 ATP         1 GROUP 0 A     ****
@<TRIPOS>MOLECULE
[[[3,4-dihydroxy-5-(6-imino-1~{H}-purin-9-yl)tetrahydrofuran-2-yl]methoxy-oxido-phosphoryl]oxy-oxido-phosphoryl] hydrogen phosphate
   44    46     1     0     0
SMALL
USER_CHARGES

@<TRIPOS>ATOM
      1 PG          2.4521    3.5043   -3.7123 P.3       1 ATP         1.5257
      2 O1G         1.2051    3.5546   -4.5667 O.co2     1 ATP        -0.8737
      3 O2G         3.5139    2.4533   -3.9481 O.co2     1 ATP        -0.8737
      4 O3G         3.1618    4.9745   -3.7434 O.3       1 ATP        -0.7971
      5 PB          2.9416    3.5685   -0.7969 P.3       1 ATP         1.6824
      6 O1B         3.7992    2.3258   -0.7098 O.co2     1 ATP        -0.8925
      7 O2B         3.5542    4.9496   -0.7266 O.co2     1 ATP        -0.8925
      8 O3B         2.0174    3.4736   -2.1394 O.3       1 ATP        -0.8047
      9 PA          0.4655    4.4361    0.5710 P.3       1 ATP         1.5908
     10 O1A        -0.4570    4.3402   -0.6249 O.co2     1 ATP        -0.8932
     11 O2A         0.9689    5.7789    1.0539 O.co2     1 ATP        -0.8932
     12 O3A         1.7548    3.4645    0.3191 O.3       1 ATP        -0.8088
     13 O5'        -0.2062    3.6557    1.8417 O.3       1 ATP        -0.5646
     14 C5'        -0.8811    2.4285    1.6206 C.3       1 ATP         0.2204
     15 C4'        -0.1994    1.3333    2.4288 C.3       1 ATP         0.0965
     16 O4'        -1.1285    0.2356    2.5840 O.3       1 ATP        -0.3907
     17 C3'         1.0324    0.7610    1.7344 C.3       1 ATP         0.0763
     18 O3'         1.9175    0.2377    2.7247 O.3       1 ATP        -0.5884
     19 C2'         0.4468   -0.3802    0.9263 C.3       1 ATP         0.0784
     20 O2'         1.3993   -1.3703    0.5961 O.3       1 ATP        -0.6085
     21 C1'        -0.6159   -0.9100    1.8769 C.3       1 ATP         0.2186
     22 N9         -1.7127   -1.6108    1.2130 N.pl3     1 ATP        -0.1699
     23 C8         -2.5485   -1.0808    0.2609 C.ar      1 ATP         0.4438
     24 N7         -3.4476   -1.9486   -0.1593 N.2       1 ATP        -0.6280
     25 C5         -3.1762   -3.0816    0.5530 C.ar      1 ATP         0.2109
     26 C6         -3.8510   -4.3579    0.5006 C.ar      1 ATP         0.6180
     27 N6         -4.8468   -4.5293   -0.2961 N.2       1 ATP        -0.8319
     28 N1         -3.2499   -5.2342    1.3937 N.pl3     1 ATP        -0.8664
     29 C2         -2.1646   -4.9275    2.2116 C.ar      1 ATP         0.5952
     30 N3         -1.5382   -3.7840    2.2778 N.2       1 ATP        -0.5599
     31 C4         -2.1054   -2.9018    1.4120 C.ar      1 ATP         0.0076
     32 HOG3        3.9893    5.1043   -3.2329 H         1 ATP         0.4101
     33 H5'1       -1.9256    2.5380    1.9293 H         1 ATP         0.0364
     34 H5'2       -0.8474    2.1930    0.5521 H         1 ATP         0.0364
     35 H4'         0.0403    1.7078    3.4343 H         1 ATP         0.0945
     36 H3'         1.5907    1.4859    1.1353 H         1 ATP         0.0703
     37 HO3'        2.6839   -0.1150    2.2479 H         1 ATP         0.4099
     38 H2'        -0.0017    0.0018    0.0005 H         1 ATP         0.0676
     39 HO2'        2.0953   -0.9375    0.0709 H         1 ATP         0.4291
     40 H1'        -0.1998   -1.6319    2.6178 H         1 ATP         0.0950
     41 H8         -2.4515   -0.0599   -0.0829 H         1 ATP         0.1135
     42 HN62       -5.1990   -5.4882   -0.2005 H         1 ATP         0.3588
     43 H2         -1.8555   -5.7783    2.8388 H         1 ATP         0.0302
     44 H44        -3.6312   -6.1750    1.4526 H         1 ATP         0.4215
@<TRIPOS>BOND
     1    1    2 2
     2    1    3 1
     3    1    4 1
     4    1    8 1
     5    4   32 1
     6    5    6 2
     7    5    7 1
     8    5    8 1
     9    5   12 1
    10    9   10 2
    11    9   11 1
    12    9   12 1
    13    9   13 1
    14   13   14 1
    15   14   15 1
    16   14   33 1
    17   14   34 1
    18   15   16 1
    19   15   17 1
    20   15   35 1
    21   16   21 1
    22   17   18 1
    23   17   19 1
    24   17   36 1
    25   18   37 1
    26   19   20 1
    27   19   21 1
    28   19   38 1
    29   20   39 1
    30   21   22 1
    31   21   40 1
    32   22   23 ar
    33   22   31 ar
    34   23   24 ar
    35   23   41 1
    36   24   25 ar
    37   25   26 ar
    38   25   31 ar
    39   26   27 2
    40   26   28 ar
    41   27   42 1
    42   28   29 ar
    43   28   44 1
    44   29   30 ar
    45   29   43 1
    46   30   31 ar
@<TRIPOS>SUBSTRUCTURE
     1 ATP         1 GROUP 0 A     ****
@<TRIPOS>MOLECULE
[[[3,4-dihydroxy-5-(6-imino-1~{H}-purin-9-yl)tetrahydrofuran-2-yl]methoxy-oxido-phosphoryl]oxy-oxido-phosphoryl] hydrogen phosphate
   44    46     1     0     0
SMALL
USER_CHARGES

@<TRIPOS>ATOM
      1 PG          7.8998    5.8902   -4.0841 P.3       1 ATP         1.5257
      2 O1G         6.9718    6.6803   -4.9796 O.co2     1 ATP        -0.8737
      3 O2G         9.0094    5.0442   -4.6677 O.co2     1 ATP        -0.8737
      4 O3G         8.5475    6.9066   -2.9825 O.3       1 ATP        -0.7971
      5 PB          6.0370    3.6974   -3.4022 P.3       1 ATP         1.6824
      6 O1B         4.8498    4.1865   -4.2015 O.co2     1 ATP        -0.8925
      7 O2B         6.8911    2.5490   -3.8913 O.co2     1 ATP        -0.8925
      8 O3B         7.0072    4.9690   -3.0748 O.3       1 ATP        -0.8047
      9 PA          4.7368    4.3145   -0.8169 P.3       1 ATP         1.5908
     10 O1A         3.3493    4.5804   -1.3596 O.co2     1 ATP        -0.8932
     11 O2A         5.6410    5.4580   -0.4113 O.co2     1 ATP        -0.8932
     12 O3A         5.5450    3.3729   -1.8798 O.3       1 ATP        -0.8088
     13 O5'         4.6405    3.2699    0.4378 O.3       1 ATP        -0.5646
     14 C5'         4.0922    1.9801    0.2227 C.3       1 ATP         0.2204
     15 C4'         2.5944    2.0310    0.4653 C.3       1 ATP         0.0965
     16 O4'         1.9327    2.5740   -0.6889 O.3       1 ATP        -0.3907
     17 C3'         1.9685    0.6634    0.6767 C.3       1 ATP         0.0763
     18 O3'         2.1425    0.1975    1.9977 O.3       1 ATP        -0.5884
     19 C2'         0.5176    0.9128    0.3099 C.3       1 ATP         0.0784
     20 O2'        -0.2103    1.4454    1.4152 O.3       1 ATP        -0.6085
     21 C1'         0.6219    1.9765   -0.7844 C.3       1 ATP         0.2186
     22 N9          0.4237    1.4496   -2.1357 N.pl3     1 ATP        -0.1699
     23 C8          1.4069    0.9710   -2.9662 C.ar      1 ATP         0.4438
     24 N7          0.9316    0.5623   -4.1260 N.2       1 ATP        -0.6280
     25 C5         -0.4120    0.7884   -4.0344 C.ar      1 ATP         0.2109
     26 C6         -1.4353    0.5283   -5.0204 C.ar      1 ATP         0.6180
     27 N6         -1.1199    0.0176   -6.1586 N.2       1 ATP        -0.8319
     28 N1         -2.6704    0.9095   -4.5147 N.pl3     1 ATP        -0.8664
     29 C2         -2.8863    1.4571   -3.2520 C.ar      1 ATP         0.5952
     30 N3         -1.9805    1.7017   -2.3442 N.2       1 ATP        -0.5599
     31 C4         -0.7561    1.3381   -2.8112 C.ar      1 ATP         0.0076
     32 HOG3        9.1763    6.5420   -2.3238 H         1 ATP         0.4101
     33 H5'1        4.3028    1.6728   -0.8066 H         1 ATP         0.0364
     34 H5'2        4.5677    1.2738    0.9106 H         1 ATP         0.0364
     35 H4'         2.3752    2.7029    1.3156 H         1 ATP         0.0945
     36 H3'         2.4336   -0.1217   -0.0015 H         1 ATP         0.0703
     37 HO3'        1.7160   -0.6716    2.0397 H         1 ATP         0.4099
     38 H2'         0.0316    0.0155   -0.0339 H         1 ATP         0.0676
     39 HO2'       -0.1608    0.7921    2.1351 H         1 ATP         0.4291
     40 H1'        -0.1474    2.7798   -0.6651 H         1 ATP         0.0950
     41 H8          2.4466    0.9468   -2.6694 H         1 ATP         0.1135
     42 HN62       -1.9661   -0.0965   -6.7275 H         1 ATP         0.3588
     43 H2         -3.9481    1.6825   -3.0660 H         1 ATP         0.0302
     44 H44        -3.4814    0.7753   -5.1133 H         1 ATP         0.4215
@<TRIPOS>BOND
     1    1    2 2
     2    1    3 1
     3    1    4 1
     4    1    8 1
     5    4   32 1
     6    5    6 2
     7    5    7 1
     8    5    8 1
     9    5   12 1
    10    9   10 2
    11    9   11 1
    12    9   12 1
    13    9   13 1
    14   13   14 1
    15   14   15 1
    16   14   33 1
    17   14   34 1
    18   15   16 1
    19   15   17 1
    20   15   35 1
    21   16   21 1
    22   17   18 1
    23   17   19 1
    24   17   36 1
    25   18   37 1
    26   19   20 1
    27   19   21 1
    28   19   38 1
    29   20   39 1
    30   21   22 1
    31   21   40 1
    32   22   23 ar
    33   22   31 ar
    34   23   24 ar
    35   23   41 1
    36   24   25 ar
    37   25   26 ar
    38   25   31 ar
    39   26   27 2
    40   26   28 ar
    41   27   42 1
    42   28   29 ar
    43   28   44 1
    44   29   30 ar
    45   29   43 1
    46   30   31 ar
@<TRIPOS>SUBSTRUCTURE
     1 ATP         1 GROUP 0 A     ****
@<TRIPOS>MOLECULE
[[[3,4-dihydroxy-5-(6-imino-1~{H}-purin-9-yl)tetrahydrofuran-2-yl]methoxy-oxido-phosphoryl]oxy-oxido-phosphoryl] hydrogen phosphate
   44    46     1     0     0
SMALL
USER_CHARGES

@<TRIPOS>ATOM
      1 PG         -0.3369    6.0794    7.7224 P.3       1 ATP         1.5257
      2 O1G        -1.7266    6.4794    8.1656 O.co2     1 ATP        -0.8737
      3 O2G         0.7431    7.1185    7.5186 O.co2     1 ATP        -0.8737
      4 O3G         0.2265    4.9401    8.7473 O.3       1 ATP        -0.7971
      5 PB          0.7057    4.3464    5.5653 P.3       1 ATP         1.6824
      6 O1B         1.6655    5.3425    4.9536 O.co2     1 ATP        -0.8925
      7 O2B         1.2015    3.2154    6.4384 O.co2     1 ATP        -0.8925
      8 O3B        -0.4517    5.1646    6.3757 O.3       1 ATP        -0.8047
      9 PA         -1.1369    4.4808    3.2540 P.3       1 ATP         1.5908
     10 O1A        -0.2214    5.2474    2.3242 O.co2     1 ATP        -0.8932
     11 O2A        -2.2827    5.1751    3.9574 O.co2     1 ATP        -0.8932
     12 O3A        -0.2270    3.7226    4.3797 O.3       1 ATP        -0.8088
     13 O5'        -1.7336    3.1724    2.4750 O.3       1 ATP        -0.5646
     14 C5'        -0.8811    2.4285    1.6206 C.3       1 ATP         0.2204
     15 C4'        -0.1994    1.3333    2.4288 C.3       1 ATP         0.0965
     16 O4'        -1.1285    0.2356    2.5840 O.3       1 ATP        -0.3907
     17 C3'         1.0324    0.7610    1.7344 C.3       1 ATP         0.0763
     18 O3'         1.9175    0.2377    2.7247 O.3       1 ATP        -0.5884
     19 C2'         0.4468   -0.3802    0.9263 C.3       1 ATP         0.0784
     20 O2'         1.3993   -1.3703    0.5961 O.3       1 ATP        -0.6085
     21 C1'        -0.6159   -0.9100    1.8769 C.3       1 ATP         0.2186
     22 N9         -1.7127   -1.6108    1.2130 N.pl3     1 ATP        -0.1699
     23 C8         -1.7690   -2.9583    0.9549 C.ar      1 ATP         0.4438
     24 N7         -2.8827   -3.3076    0.3418 N.2       1 ATP        -0.6280
     25 C5         -3.5683   -2.1351    0.2017 C.ar      1 ATP         0.2109
     26 C6         -4.8617   -1.9185   -0.4044 C.ar      1 ATP         0.6180
     27 N6         -5.5166   -2.9094   -0.8993 N.2       1 ATP        -0.8319
     28 N1         -5.1837   -0.5701   -0.3344 N.pl3     1 ATP        -0.8664
     29 C2         -4.3821    0.4180    0.2330 C.ar      1 ATP         0.5952
     30 N3         -3.2117    0.2488    0.7860 N.2       1 ATP        -0.5599
     31 C4         -2.8672   -1.0657    0.7327 C.ar      1 ATP         0.0076
     32 HOG3        1.1238    4.5753    8.5923 H         1 ATP         0.4101
     33 H5'1       -1.4800    1.9927    0.8146 H         1 ATP         0.0364
     34 H5'2       -0.1367    3.1040    1.1872 H         1 ATP         0.0364
     35 H4'         0.0403    1.7078    3.4343 H         1 ATP         0.0945
     36 H3'         1.5907    1.4859    1.1353 H         1 ATP         0.0703
     37 HO3'        2.1521    0.9800    3.3017 H         1 ATP         0.4099
     38 H2'        -0.0017    0.0018    0.0005 H         1 ATP         0.0676
     39 HO2'        1.7495   -1.7243    1.4324 H         1 ATP         0.4291
     40 H1'        -0.1998   -1.6319    2.6178 H         1 ATP         0.0950
     41 H8         -0.9697   -3.6300    1.2371 H         1 ATP         0.1135
     42 HN62       -6.4060   -2.5723   -1.2840 H         1 ATP         0.3588
     43 H2         -4.8409    1.4176    0.1757 H         1 ATP         0.0302
     44 H44        -6.0768   -0.2826   -0.7263 H         1 ATP         0.4215
@<TRIPOS>BOND
     1    1    2 2
     2    1    3 1
     3    1    4 1
     4    1    8 1
     5    4   32 1
     6    5    6 2
     7    5    7 1
     8    5    8 1
     9    5   12 1
    10    9   10 2
    11    9   11 1
    12    9   12 1
    13    9   13 1
    14   13   14 1
    15   14   15 1
    16   14   33 1
    17   14   34 1
    18   15   16 1
    19   15   17 1
    20   15   35 1
    21   16   21 1
    22   17   18 1
    23   17   19 1
    24   17   36 1
    25   18   37 1
    26   19   20 1
    27   19   21 1
    28   19   38 1
    29   20   39 1
    30   21   22 1
    31   21   40 1
    32   22   23 ar
    33   22   31 ar
    34   23   24 ar
    35   23   41 1
    36   24   25 ar
    37   25   26 ar
    38   25   31 ar
    39   26   27 2
    40   26   28 ar
    41   27   42 1
    42   28   29 ar
    43   28   44 1
    44   29   30 ar
    45   29   43 1
    46   30   31 ar
@<TRIPOS>SUBSTRUCTURE
     1 ATP         1 GROUP 0 A     ****
@<TRIPOS>MOLECULE
[[[3,4-dihydroxy-5-(6-imino-1~{H}-purin-9-yl)tetrahydrofuran-2-yl]methoxy-oxido-phosphoryl]oxy-oxido-phosphoryl] hydrogen phosphate
   44    46     1     0     0
SMALL
USER_CHARGES

@<TRIPOS>ATOM
      1 PG          2.4521    3.5043   -3.7123 P.3       1 ATP         1.5257
      2 O1G         1.2051    3.5546   -4.5667 O.co2     1 ATP        -0.8737
      3 O2G         3.5139    2.4533   -3.9481 O.co2     1 ATP        -0.8737
      4 O3G         3.1618    4.9745   -3.7434 O.3       1 ATP        -0.7971
      5 PB          2.9416    3.5685   -0.7969 P.3       1 ATP         1.6824
      6 O1B         3.7992    2.3258   -0.7098 O.co2     1 ATP        -0.8925
      7 O2B         3.5542    4.9496   -0.7266 O.co2     1 ATP        -0.8925
      8 O3B         2.0174    3.4736   -2.1394 O.3       1 ATP        -0.8047
      9 PA          0.4655    4.4361    0.5710 P.3       1 ATP         1.5908
     10 O1A        -0.4570    4.3402   -0.6249 O.co2     1 ATP        -0.8932
     11 O2A         0.9689    5.7789    1.0539 O.co2     1 ATP        -0.8932
     12 O3A         1.7548    3.4645    0.3191 O.3       1 ATP        -0.8088
     13 O5'        -0.2062    3.6557    1.8417 O.3       1 ATP        -0.5646
     14 C5'        -0.8811    2.4285    1.6206 C.3       1 ATP         0.2204
     15 C4'        -0.1994    1.3333    2.4288 C.3       1 ATP         0.0965
     16 O4'        -1.1285    0.2356    2.5840 O.3       1 ATP        -0.3907
     17 C3'         1.0324    0.7610    1.7344 C.3       1 ATP         0.0763
     18 O3'         1.9175    0.2377    2.7247 O.3       1 ATP        -0.5884
     19 C2'         0.4468   -0.3802    0.9263 C.3       1 ATP         0.0784
     20 O2'         1.3993   -1.3703    0.5961 O.3       1 ATP        -0.6085
     21 C1'        -0.6159   -0.9100    1.8769 C.3       1 ATP         0.2186
     22 N9         -1.7127   -1.6108    1.2130 N.pl3     1 ATP        -0.1699
     23 C8         -1.7690   -2.9583    0.9549 C.ar      1 ATP         0.4438
     24 N7         -2.8827   -3.3076    0.3418 N.2       1 ATP        -0.6280
     25 C5         -3.5683   -2.1351    0.2017 C.ar      1 ATP         0.2109
     26 C6         -4.8617   -1.9185   -0.4044 C.ar      1 ATP         0.6180
     27 N6         -5.5166   -2.9094   -0.8993 N.2       1 ATP        -0.8319
     28 N1         -5.1837   -0.5701   -0.3344 N.pl3     1 ATP        -0.8664
     29 C2         -4.3821    0.4180    0.2330 C.ar      1 ATP         0.5952
     30 N3         -3.2117    0.2488    0.7860 N.2       1 ATP        -0.5599
     31 C4         -2.8672   -1.0657    0.7327 C.ar      1 ATP         0.0076
     32 HOG3        3.9893    5.1043   -3.2329 H         1 ATP         0.4101
     33 H5'1       -1.9256    2.5380    1.9293 H         1 ATP         0.0364
     34 H5'2       -0.8474    2.1930    0.5521 H         1 ATP         0.0364
     35 H4'         0.0403    1.7078    3.4343 H         1 ATP         0.0945
     36 H3'         1.5907    1.4859    1.1353 H         1 ATP         0.0703
     37 HO3'        2.6839   -0.1150    2.2479 H         1 ATP         0.4099
     38 H2'        -0.0017    0.0018    0.0005 H         1 ATP         0.0676
     39 HO2'        2.0953   -0.9375    0.0709 H         1 ATP         0.4291
     40 H1'        -0.1998   -1.6319    2.6178 H         1 ATP         0.0950
     41 H8         -0.9697   -3.6300    1.2371 H         1 ATP         0.1135
     42 HN62       -6.4060   -2.5723   -1.2840 H         1 ATP         0.3588
     43 H2         -4.8409    1.4176    0.1757 H         1 ATP         0.0302
     44 H44        -6.0768   -0.2826   -0.7263 H         1 ATP         0.4215
@<TRIPOS>BOND
     1    1    2 2
     2    1    3 1
     3    1    4 1
     4    1    8 1
     5    4   32 1
     6    5    6 2
     7    5    7 1
     8    5    8 1
     9    5   12 1
    10    9   10 2
    11    9   11 1
    12    9   12 1
    13    9   13 1
    14   13   14 1
    15   14   15 1
    16   14   33 1
    17   14   34 1
    18   15   16 1
    19   15   17 1
    20   15   35 1
    21   16   21 1
    22   17   18 1
    23   17   19 1
    24   17   36 1
    25   18   37 1
    26   19   20 1
    27   19   21 1
    28   19   38 1
    29   20   39 1
    30   21   22 1
    31   21   40 1
    32   22   23 ar
    33   22   31 ar
    34   23   24 ar
    35   23   41 1
    36   24   25 ar
    37   25   26 ar
    38   25   31 ar
    39   26   27 2
    40   26   28 ar
    41   27   42 1
    42   28   29 ar
    43   28   44 1
    44   29   30 ar
    45   29   43 1
    46   30   31 ar
@<TRIPOS>SUBSTRUCTURE
     1 ATP         1 GROUP 0 A     ****
@<TRIPOS>MOLECULE
[[[3,4-dihydroxy-5-(6-imino-1~{H}-purin-9-yl)tetrahydrofuran-2-yl]methoxy-oxido-phosphoryl]oxy-oxido-phosphoryl] hydrogen phosphate
   44    46     1     0     0
SMALL
USER_CHARGES

@<TRIPOS>ATOM
      1 PG         -4.3989    1.6370   -1.6314 P.3       1 ATP         1.5257
      2 O1G        -3.9230    0.2181   -1.4131 O.co2     1 ATP        -0.8737
      3 O2G        -3.4350    2.7241   -2.0516 O.co2     1 ATP        -0.8737
      4 O3G        -5.6428    1.6099   -2.6888 O.3       1 ATP        -0.7971
      5 PB         -4.6718    2.4155    1.2081 P.3       1 ATP         1.6824
      6 O1B        -5.7952    3.0227    2.0186 O.co2     1 ATP        -0.8925
      7 O2B        -3.9292    1.1905    1.6932 O.co2     1 ATP        -0.8925
      8 O3B        -5.2122    2.1342   -0.3067 O.3       1 ATP        -0.8047
      9 PA         -2.5926    4.4187    1.8556 P.3       1 ATP         1.5908
     10 O1A        -3.4218    5.0536    2.9508 O.co2     1 ATP        -0.8932
     11 O2A        -1.6631    5.2564    1.0048 O.co2     1 ATP        -0.8932
     12 O3A        -3.5855    3.5838    0.8621 O.3       1 ATP        -0.8088
     13 O5'        -1.7336    3.1724    2.4750 O.3       1 ATP        -0.5646
     14 C5'        -0.8811    2.4285    1.6206 C.3       1 ATP         0.2204
     15 C4'        -0.1994    1.3333    2.4288 C.3       1 ATP         0.0965
     16 O4'        -1.1285    0.2356    2.5840 O.3       1 ATP        -0.3907
     17 C3'         1.0324    0.7610    1.7344 C.3       1 ATP         0.0763
     18 O3'         1.9175    0.2377    2.7247 O.3       1 ATP        -0.5884
     19 C2'         0.4468   -0.3802    0.9263 C.3       1 ATP         0.0784
     20 O2'         1.3993   -1.3703    0.5961 O.3       1 ATP        -0.6085
     21 C1'        -0.6159   -0.9100    1.8769 C.3       1 ATP         0.2186
     22 N9         -1.7127   -1.6108    1.2130 N.pl3     1 ATP        -0.1699
     23 C8         -1.6202   -2.3321    0.0482 C.ar      1 ATP         0.4438
     24 N7         -2.7754   -2.8539   -0.3142 N.2       1 ATP        -0.6280
     25 C5         -3.6439   -2.4502    0.6592 C.ar      1 ATP         0.2109
     26 C6         -5.0563   -2.7308    0.7745 C.ar      1 ATP         0.6180
     27 N6         -5.6468   -3.4480   -0.1158 N.2       1 ATP        -0.8319
     28 N1         -5.5549   -2.1241    1.9191 N.pl3     1 ATP        -0.8664
     29 C2         -4.8068   -1.3637    2.8153 C.ar      1 ATP         0.5952
     30 N3         -3.5318   -1.0957    2.7338 N.2       1 ATP        -0.5599
     31 C4         -3.0130   -1.6778    1.6196 C.ar      1 ATP         0.0076
     32 HOG3       -6.0646    2.4605   -2.9354 H         1 ATP         0.4101
     33 H5'1       -1.4800    1.9927    0.8146 H         1 ATP         0.0364
     34 H5'2       -0.1367    3.1040    1.1872 H         1 ATP         0.0364
     35 H4'         0.0403    1.7078    3.4343 H         1 ATP         0.0945
     36 H3'         1.5907    1.4859    1.1353 H         1 ATP         0.0703
     37 HO3'        2.6839   -0.1150    2.2479 H         1 ATP         0.4099
     38 H2'        -0.0017    0.0018    0.0005 H         1 ATP         0.0676
     39 HO2'        2.0953   -0.9375    0.0709 H         1 ATP         0.4291
     40 H1'        -0.1998   -1.6319    2.6178 H         1 ATP         0.0950
     41 H8         -0.6865   -2.4395   -0.4871 H         1 ATP         0.1135
     42 HN62       -6.6394   -3.5426    0.1257 H         1 ATP         0.3588
     43 H2         -5.4125   -0.9811    3.6517 H         1 ATP         0.0302
     44 H44        -6.5442   -2.2475    2.1195 H         1 ATP         0.4215
@<TRIPOS>BOND
     1    1    2 2
     2    1    3 1
     3    1    4 1
     4    1    8 1
     5    4   32 1
     6    5    6 2
     7    5    7 1
     8    5    8 1
     9    5   12 1
    10    9   10 2
    11    9   11 1
    12    9   12 1
    13    9   13 1
    14   13   14 1
    15   14   15 1
    16   14   33 1
    17   14   34 1
    18   15   16 1
    19   15   17 1
    20   15   35 1
    21   16   21 1
    22   17   18 1
    23   17   19 1
    24   17   36 1
    25   18   37 1
    26   19   20 1
    27   19   21 1
    28   19   38 1
    29   20   39 1
    30   21   22 1
    31   21   40 1
    32   22   23 ar
    33   22   31 ar
    34   23   24 ar
    35   23   41 1
    36   24   25 ar
    37   25   26 ar
    38   25   31 ar
    39   26   27 2
    40   26   28 ar
    41   27   42 1
    42   28   29 ar
    43   28   44 1
    44   29   30 ar
    45   29   43 1
    46   30   31 ar
@<TRIPOS>SUBSTRUCTURE
     1 ATP         1 GROUP 0 A     ****
@<TRIPOS>MOLECULE
[[[3,4-dihydroxy-5-(6-imino-1~{H}-purin-9-yl)tetrahydrofuran-2-yl]methoxy-oxido-phosphoryl]oxy-oxido-phosphoryl] hydrogen phosphate
   44    46     1     0     0
SMALL
USER_CHARGES

@<TRIPOS>ATOM
      1 PG          4.2345    6.8378    5.4419 P.3       1 ATP         1.5257
      2 O1G         4.8741    8.0984    4.9043 O.co2     1 ATP        -0.8737
      3 O2G         4.7871    6.1485    6.6696 O.co2     1 ATP        -0.8737
      4 O3G         2.6445    7.1234    5.6793 O.3       1 ATP        -0.7971
      5 PB          3.3722    4.2920    4.2094 P.3       1 ATP         1.6824
      6 O1B         4.1112    3.3574    5.1409 O.co2     1 ATP        -0.8925
      7 O2B         1.8799    4.5039    4.3341 O.co2     1 ATP        -0.8925
      8 O3B         4.1114    5.7476    4.2336 O.3       1 ATP        -0.8047
      9 PA          5.1608    3.6754    1.9343 P.3       1 ATP         1.5908
     10 O1A         5.8660    2.4921    2.5611 O.co2     1 ATP        -0.8932
     11 O2A         5.8406    5.0246    1.8487 O.co2     1 ATP        -0.8932
     12 O3A         3.7149    3.8746    2.6689 O.3       1 ATP        -0.8088
     13 O5'         4.6405    3.2699    0.4378 O.3       1 ATP        -0.5646
     14 C5'         4.0922    1.9801    0.2227 C.3       1 ATP         0.2204
     15 C4'         2.5944    2.0310    0.4653 C.3       1 ATP         0.0965
     16 O4'         1.9327    2.5740   -0.6889 O.3       1 ATP        -0.3907
     17 C3'         1.9685    0.6634    0.6767 C.3       1 ATP         0.0763
     18 O3'         2.1425    0.1975    1.9977 O.3       1 ATP        -0.5884
     19 C2'         0.5176    0.9128    0.3099 C.3       1 ATP         0.0784
     20 O2'        -0.2103    1.4454    1.4152 O.3       1 ATP        -0.6085
     21 C1'         0.6219    1.9765   -0.7844 C.3       1 ATP         0.2186
     22 N9          0.4237    1.4496   -2.1357 N.pl3     1 ATP        -0.1699
     23 C8          1.4069    0.9710   -2.9662 C.ar      1 ATP         0.4438
     24 N7          0.9316    0.5623   -4.1260 N.2       1 ATP        -0.6280
     25 C5         -0.4120    0.7884   -4.0344 C.ar      1 ATP         0.2109
     26 C6         -1.4353    0.5283   -5.0204 C.ar      1 ATP         0.6180
     27 N6         -1.1199    0.0176   -6.1586 N.2       1 ATP        -0.8319
     28 N1         -2.6704    0.9095   -4.5147 N.pl3     1 ATP        -0.8664
     29 C2         -2.8863    1.4571   -3.2520 C.ar      1 ATP         0.5952
     30 N3         -1.9805    1.7017   -2.3442 N.2       1 ATP        -0.5599
     31 C4         -0.7561    1.3381   -2.8112 C.ar      1 ATP         0.0076
     32 HOG3        2.0865    6.3962    6.0287 H         1 ATP         0.4101
     33 H5'1        4.3028    1.6728   -0.8066 H         1 ATP         0.0364
     34 H5'2        4.5677    1.2738    0.9106 H         1 ATP         0.0364
     35 H4'         2.3752    2.7029    1.3156 H         1 ATP         0.0945
     36 H3'         2.4336   -0.1217   -0.0015 H         1 ATP         0.0703
     37 HO3'        1.7138    0.8467    2.5755 H         1 ATP         0.4099
     38 H2'         0.0316    0.0155   -0.0339 H         1 ATP         0.0676
     39 HO2'       -1.1270    1.5823    1.1180 H         1 ATP         0.4291
     40 H1'        -0.1474    2.7798   -0.6651 H         1 ATP         0.0950
     41 H8          2.4466    0.9468   -2.6694 H         1 ATP         0.1135
     42 HN62       -1.9661   -0.0965   -6.7275 H         1 ATP         0.3588
     43 H2         -3.9481    1.6825   -3.0660 H         1 ATP         0.0302
     44 H44        -3.4814    0.7753   -5.1133 H         1 ATP         0.4215
@<TRIPOS>BOND
     1    1    2 2
     2    1    3 1
     3    1    4 1
     4    1    8 1
     5    4   32 1
     6    5    6 2
     7    5    7 1
     8    5    8 1
     9    5   12 1
    10    9   10 2
    11    9   11 1
    12    9   12 1
    13    9   13 1
    14   13   14 1
    15   14   15 1
    16   14   33 1
    17   14   34 1
    18   15   16 1
    19   15   17 1
    20   15   35 1
    21   16   21 1
    22   17   18 1
    23   17   19 1
    24   17   36 1
    25   18   37 1
    26   19   20 1
    27   19   21 1
    28   19   38 1
    29   20   39 1
    30   21   22 1
    31   21   40 1
    32   22   23 ar
    33   22   31 ar
    34   23   24 ar
    35   23   41 1
    36   24   25 ar
    37   25   26 ar
    38   25   31 ar
    39   26   27 2
    40   26   28 ar
    41   27   42 1
    42   28   29 ar
    43   28   44 1
    44   29   30 ar
    45   29   43 1
    46   30   31 ar
@<TRIPOS>SUBSTRUCTURE
     1 ATP         1 GROUP 0 A     ****
@<TRIPOS>MOLECULE
[[[3,4-dihydroxy-5-(6-imino-1~{H}-purin-9-yl)tetrahydrofuran-2-yl]methoxy-oxido-phosphoryl]oxy-oxido-phosphoryl] hydrogen phosphate
   44    46     1     0     0
SMALL
USER_CHARGES

@<TRIPOS>ATOM
      1 PG          4.7685    5.8822   -1.0273 P.3       1 ATP         1.5257
      2 O1G         5.0265    7.1027   -0.1722 O.co2     1 ATP        -0.8737
      3 O2G         4.5470    6.0102   -2.5180 O.co2     1 ATP        -0.8737
      4 O3G         5.9704    4.8068   -0.7723 O.3       1 ATP        -0.7971
      5 PB          2.9416    3.5685   -0.7969 P.3       1 ATP         1.6824
      6 O1B         2.3105    3.6736   -2.1674 O.co2     1 ATP        -0.8925
      7 O2B         3.9861    2.5174   -0.4939 O.co2     1 ATP        -0.8925
      8 O3B         3.5350    5.0314   -0.3804 O.3       1 ATP        -0.8047
      9 PA          0.4655    4.4361    0.5710 P.3       1 ATP         1.5908
     10 O1A        -0.4570    4.3402   -0.6249 O.co2     1 ATP        -0.8932
     11 O2A         0.9689    5.7789    1.0539 O.co2     1 ATP        -0.8932
     12 O3A         1.7548    3.4645    0.3191 O.3       1 ATP        -0.8088
     13 O5'        -0.2062    3.6557    1.8417 O.3       1 ATP        -0.5646
     14 C5'        -0.8811    2.4285    1.6206 C.3       1 ATP         0.2204
     15 C4'        -0.1994    1.3333    2.4288 C.3       1 ATP         0.0965
     16 O4'        -1.1285    0.2356    2.5840 O.3       1 ATP        -0.3907
     17 C3'         1.0324    0.7610    1.7344 C.3       1 ATP         0.0763
     18 O3'         1.9175    0.2377    2.7247 O.3       1 ATP        -0.5884
     19 C2'         0.4468   -0.3802    0.9263 C.3       1 ATP         0.0784
     20 O2'         1.3993   -1.3703    0.5961 O.3       1 ATP        -0.6085
     21 C1'        -0.6159   -0.9100    1.8769 C.3       1 ATP         0.2186
     22 N9         -1.7127   -1.6108    1.2130 N.pl3     1 ATP        -0.1699
     23 C8         -1.7690   -2.9583    0.9549 C.ar      1 ATP         0.4438
     24 N7         -2.8827   -3.3076    0.3418 N.2       1 ATP        -0.6280
     25 C5         -3.5683   -2.1351    0.2017 C.ar      1 ATP         0.2109
     26 C6         -4.8617   -1.9185   -0.4044 C.ar      1 ATP         0.6180
     27 N6         -5.5166   -2.9094   -0.8993 N.2       1 ATP        -0.8319
     28 N1         -5.1837   -0.5701   -0.3344 N.pl3     1 ATP        -0.8664
     29 C2         -4.3821    0.4180    0.2330 C.ar      1 ATP         0.5952
     30 N3         -3.2117    0.2488    0.7860 N.2       1 ATP        -0.5599
     31 C4         -2.8672   -1.0657    0.7327 C.ar      1 ATP         0.0076
     32 HOG3        5.9461    3.9554   -1.2589 H         1 ATP         0.4101
     33 H5'1       -1.9256    2.5380    1.9293 H         1 ATP         0.0364
     34 H5'2       -0.8474    2.1930    0.5521 H         1 ATP         0.0364
     35 H4'         0.0403    1.7078    3.4343 H         1 ATP         0.0945
     36 H3'         1.5907    1.4859    1.1353 H         1 ATP         0.0703
     37 HO3'        2.6839   -0.1150    2.2479 H         1 ATP         0.4099
     38 H2'        -0.0017    0.0018    0.0005 H         1 ATP         0.0676
     39 HO2'        2.0953   -0.9375    0.0709 H         1 ATP         0.4291
     40 H1'        -0.1998   -1.6319    2.6178 H         1 ATP         0.0950
     41 H8         -0.9697   -3.6300    1.2371 H         1 ATP         0.1135
     42 HN62       -6.4060   -2.5723   -1.2840 H         1 ATP         0.3588
     43 H2         -4.8409    1.4176    0.1757 H         1 ATP         0.0302
     44 H44        -6.0768   -0.2826   -0.7263 H         1 ATP         0.4215
@<TRIPOS>BOND
     1    1    2 2
     2    1    3 1
     3    1    4 1
     4    1    8 1
     5    4   32 1
     6    5    6 2
     7    5    7 1
     8    5    8 1
     9    5   12 1
    10    9   10 2
    11    9   11 1
    12    9   12 1
    13    9   13 1
    14   13   14 1
    15   14   15 1
    16   14   33 1
    17   14   34 1
    18   15   16 1
    19   15   17 1
    20   15   35 1
    21   16   21 1
    22   17   18 1
    23   17   19 1
    24   17   36 1
    25   18   37 1
    26   19   20 1
    27   19   21 1
    28   19   38 1
    29   20   39 1
    30   21   22 1
    31   21   40 1
    32   22   23 ar
    33   22   31 ar
    34   23   24 ar
    35   23   41 1
    36   24   25 ar
    37   25   26 ar
    38   25   31 ar
    39   26   27 2
    40   26   28 ar
    41   27   42 1
    42   28   29 ar
    43   28   44 1
    44   29   30 ar
    45   29   43 1
    46   30   31 ar
@<TRIPOS>SUBSTRUCTURE
     1 ATP         1 GROUP 0 A     ****
@<TRIPOS>MOLECULE
[[[3,4-dihydroxy-5-(6-imino-1~{H}-purin-9-yl)tetrahydrofuran-2-yl]methoxy-oxido-phosphoryl]oxy-oxido-phosphoryl] hydrogen phosphate
   44    46     1     0     0
SMALL
USER_CHARGES

@<TRIPOS>ATOM
      1 PG          3.0029    6.1393    5.0633 P.3       1 ATP         1.5257
      2 O1G         2.5417    7.1520    6.0875 O.co2     1 ATP        -0.8737
      3 O2G         3.7361    6.5755    3.8143 O.co2     1 ATP        -0.8737
      4 O3G         3.9005    5.0060    5.8221 O.3       1 ATP        -0.7971
      5 PB          0.7057    4.3464    5.5653 P.3       1 ATP         1.6824
      6 O1B         1.4703    3.2199    6.2240 O.co2     1 ATP        -0.8925
      7 O2B        -0.1267    5.3103    6.3811 O.co2     1 ATP        -0.8925
      8 O3B         1.7364    5.2038    4.6335 O.3       1 ATP        -0.8047
      9 PA         -1.1369    4.4808    3.2540 P.3       1 ATP         1.5908
     10 O1A        -0.2214    5.2474    2.3242 O.co2     1 ATP        -0.8932
     11 O2A        -2.2827    5.1751    3.9574 O.co2     1 ATP        -0.8932
     12 O3A        -0.2270    3.7226    4.3797 O.3       1 ATP        -0.8088
     13 O5'        -1.7336    3.1724    2.4750 O.3       1 ATP        -0.5646
     14 C5'        -0.8811    2.4285    1.6206 C.3       1 ATP         0.2204
     15 C4'        -0.1994    1.3333    2.4288 C.3       1 ATP         0.0965
     16 O4'        -1.1285    0.2356    2.5840 O.3       1 ATP        -0.3907
     17 C3'         1.0324    0.7610    1.7344 C.3       1 ATP         0.0763
     18 O3'         1.9175    0.2377    2.7247 O.3       1 ATP        -0.5884
     19 C2'         0.4468   -0.3802    0.9263 C.3       1 ATP         0.0784
     20 O2'         1.3993   -1.3703    0.5961 O.3       1 ATP        -0.6085
     21 C1'        -0.6159   -0.9100    1.8769 C.3       1 ATP         0.2186
     22 N9         -1.7127   -1.6108    1.2130 N.pl3     1 ATP        -0.1699
     23 C8         -2.8662   -1.0361    0.7388 C.ar      1 ATP         0.4438
     24 N7         -3.6774   -1.9166    0.1867 N.2       1 ATP        -0.6280
     25 C5         -3.0159   -3.1045    0.3122 C.ar      1 ATP         0.2109
     26 C6         -3.4377   -4.4169   -0.1199 C.ar      1 ATP         0.6180
     27 N6         -4.5720   -4.5691   -0.7080 N.2       1 ATP        -0.8319
     28 N1         -2.4600   -5.3463    0.2071 N.pl3     1 ATP        -0.8664
     29 C2         -1.2595   -5.0554    0.8515 C.ar      1 ATP         0.5952
     30 N3         -0.8555   -3.8803    1.2516 N.2       1 ATP        -0.5599
     31 C4         -1.7946   -2.9457    0.9448 C.ar      1 ATP         0.0076
     32 HOG3        3.4822    4.4812    6.5376 H         1 ATP         0.4101
     33 H5'1       -1.4800    1.9927    0.8146 H         1 ATP         0.0364
     34 H5'2       -0.1367    3.1040    1.1872 H         1 ATP         0.0364
     35 H4'         0.0403    1.7078    3.4343 H         1 ATP         0.0945
     36 H3'         1.5907    1.4859    1.1353 H         1 ATP         0.0703
     37 HO3'        1.4256   -0.4528    3.1940 H         1 ATP         0.4099
     38 H2'        -0.0017    0.0018    0.0005 H         1 ATP         0.0676
     39 HO2'        2.0953   -0.9375    0.0709 H         1 ATP         0.4291
     40 H1'        -0.1998   -1.6319    2.6178 H         1 ATP         0.0950
     41 H8         -3.0558    0.0252    0.8256 H         1 ATP         0.1135
     42 HN62       -4.7047   -5.5592   -0.9421 H         1 ATP         0.3588
     43 H2         -0.6372   -5.9505    1.0077 H         1 ATP         0.0302
     44 H44        -2.6338   -6.3155   -0.0469 H         1 ATP         0.4215
@<TRIPOS>BOND
     1    1    2 2
     2    1    3 1
     3    1    4 1
     4    1    8 1
     5    4   32 1
     6    5    6 2
     7    5    7 1
     8    5    8 1
     9    5   12 1
    10    9   10 2
    11    9   11 1
    12    9   12 1
    13    9   13 1
    14   13   14 1
    15   14   15 1
    16   14   33 1
    17   14   34 1
    18   15   16 1
    19   15   17 1
    20   15   35 1
    21   16   21 1
    22   17   18 1
    23   17   19 1
    24   17   36 1
    25   18   37 1
    26   19   20 1
    27   19   21 1
    28   19   38 1
    29   20   39 1
    30   21   22 1
    31   21   40 1
    32   22   23 ar
    33   22   31 ar
    34   23   24 ar
    35   23   41 1
    36   24   25 ar
    37   25   26 ar
    38   25   31 ar
    39   26   27 2
    40   26   28 ar
    41   27   42 1
    42   28   29 ar
    43   28   44 1
    44   29   30 ar
    45   29   43 1
    46   30   31 ar
@<TRIPOS>SUBSTRUCTURE
     1 ATP         1 GROUP 0 A     ****
@<TRIPOS>MOLECULE
[[[3,4-dihydroxy-5-(6-imino-1~{H}-purin-9-yl)tetrahydrofuran-2-yl]methoxy-oxido-phosphoryl]oxy-oxido-phosphoryl] hydrogen phosphate
   44    46     1     0     0
SMALL
USER_CHARGES

@<TRIPOS>ATOM
      1 PG          3.7219    2.7499   -1.2924 P.3       1 ATP         1.5257
      2 O1G         3.2434    2.1868    0.0272 O.co2     1 ATP        -0.8737
      3 O2G         4.8275    3.7809   -1.3423 O.co2     1 ATP        -0.8737
      4 O3G         4.1277    1.5069   -2.2701 O.3       1 ATP        -0.7971
      5 PB          1.4493    4.5708   -1.8053 P.3       1 ATP         1.6824
      6 O1B         2.2940    5.8068   -1.5903 O.co2     1 ATP        -0.8925
      7 O2B         0.3122    4.5628   -2.8025 O.co2     1 ATP        -0.8925
      8 O3B         2.4370    3.3114   -2.1276 O.3       1 ATP        -0.8047
      9 PA         -0.1844    4.7788    0.6530 P.3       1 ATP         1.5908
     10 O1A        -1.5385    4.8262   -0.0211 O.co2     1 ATP        -0.8932
     11 O2A         0.4501    6.0373    1.2036 O.co2     1 ATP        -0.8932
     12 O3A         0.8819    4.0669   -0.3600 O.3       1 ATP        -0.8088
     13 O5'        -0.2062    3.6557    1.8417 O.3       1 ATP        -0.5646
     14 C5'        -0.8811    2.4285    1.6206 C.3       1 ATP         0.2204
     15 C4'        -0.1994    1.3333    2.4288 C.3       1 ATP         0.0965
     16 O4'        -1.1285    0.2356    2.5840 O.3       1 ATP        -0.3907
     17 C3'         1.0324    0.7610    1.7344 C.3       1 ATP         0.0763
     18 O3'         1.9175    0.2377    2.7247 O.3       1 ATP        -0.5884
     19 C2'         0.4468   -0.3802    0.9263 C.3       1 ATP         0.0784
     20 O2'         1.3993   -1.3703    0.5961 O.3       1 ATP        -0.6085
     21 C1'        -0.6159   -0.9100    1.8769 C.3       1 ATP         0.2186
     22 N9         -1.7127   -1.6108    1.2130 N.pl3     1 ATP        -0.1699
     23 C8         -2.0868   -2.9137    1.4327 C.ar      1 ATP         0.4438
     24 N7         -3.1125   -3.2756    0.6878 N.2       1 ATP        -0.6280
     25 C5         -3.4079   -2.1580   -0.0391 C.ar      1 ATP         0.2109
     26 C6         -4.4483   -1.9775   -1.0249 C.ar      1 ATP         0.6180
     27 N6         -5.2418   -2.9492   -1.3113 N.2       1 ATP        -0.8319
     28 N1         -4.3937   -0.6823   -1.5211 N.pl3     1 ATP        -0.8664
     29 C2         -3.4770    0.2901   -1.1271 C.ar      1 ATP         0.5952
     30 N3         -2.5289    0.1525   -0.2402 N.2       1 ATP        -0.5599
     31 C4         -2.5564   -1.1096    0.2655 C.ar      1 ATP         0.0076
     32 HOG3        3.4366    0.8505   -2.5021 H         1 ATP         0.4101
     33 H5'1       -1.9256    2.5380    1.9293 H         1 ATP         0.0364
     34 H5'2       -0.8474    2.1930    0.5521 H         1 ATP         0.0364
     35 H4'         0.0403    1.7078    3.4343 H         1 ATP         0.0945
     36 H3'         1.5907    1.4859    1.1353 H         1 ATP         0.0703
     37 HO3'        2.6839   -0.1150    2.2479 H         1 ATP         0.4099
     38 H2'        -0.0017    0.0018    0.0005 H         1 ATP         0.0676
     39 HO2'        2.0953   -0.9375    0.0709 H         1 ATP         0.4291
     40 H1'        -0.1998   -1.6319    2.6178 H         1 ATP         0.0950
     41 H8         -1.5740   -3.5449    2.1457 H         1 ATP         0.1135
     42 HN62       -5.9117   -2.6433   -2.0256 H         1 ATP         0.3588
     43 H2         -3.6225    1.2454   -1.6553 H         1 ATP         0.0302
     44 H44        -5.0794   -0.4231   -2.2258 H         1 ATP         0.4215
@<TRIPOS>BOND
     1    1    2 2
     2    1    3 1
     3    1    4 1
     4    1    8 1
     5    4   32 1
     6    5    6 2
     7    5    7 1
     8    5    8 1
     9    5   12 1
    10    9   10 2
    11    9   11 1
    12    9   12 1
    13    9   13 1
    14   13   14 1
    15   14   15 1
    16   14   33 1
    17   14   34 1
    18   15   16 1
    19   15   17 1
    20   15   35 1
    21   16   21 1
    22   17   18 1
    23   17   19 1
    24   17   36 1
    25   18   37 1
    26   19   20 1
    27   19   21 1
    28   19   38 1
    29   20   39 1
    30   21   22 1
    31   21   40 1
    32   22   23 ar
    33   22   31 ar
    34   23   24 ar
    35   23   41 1
    36   24   25 ar
    37   25   26 ar
    38   25   31 ar
    39   26   27 2
    40   26   28 ar
    41   27   42 1
    42   28   29 ar
    43   28   44 1
    44   29   30 ar
    45   29   43 1
    46   30   31 ar
@<TRIPOS>SUBSTRUCTURE
     1 ATP         1 GROUP 0 A     ****
@<TRIPOS>MOLECULE
[[[3,4-dihydroxy-5-(6-imino-1~{H}-purin-9-yl)tetrahydrofuran-2-yl]methoxy-oxido-phosphoryl]oxy-oxido-phosphoryl] hydrogen phosphate
   44    46     1     0     0
SMALL
USER_CHARGES

@<TRIPOS>ATOM
      1 PG          7.5619    1.3099   -3.2971 P.3       1 ATP         1.5257
      2 O1G         6.1681    1.5412   -3.8368 O.co2     1 ATP        -0.8737
      3 O2G         7.8702    0.1100   -2.4294 O.co2     1 ATP        -0.8737
      4 O3G         8.6120    1.3293   -4.5472 O.3       1 ATP        -0.7971
      5 PB          7.5137    3.3518   -1.1589 P.3       1 ATP         1.6824
      6 O1B         7.5020    2.3108   -0.0618 O.co2     1 ATP        -0.8925
      7 O2B         8.2119    4.6803   -0.9708 O.co2     1 ATP        -0.8925
      8 O3B         8.0657    2.6601   -2.5309 O.3       1 ATP        -0.8047
      9 PA          4.7368    4.3145   -0.8169 P.3       1 ATP         1.5908
     10 O1A         3.4836    4.2088   -1.6586 O.co2     1 ATP        -0.8932
     11 O2A         5.1994    5.6527   -0.2831 O.co2     1 ATP        -0.8932
     12 O3A         5.9765    3.6304   -1.6323 O.3       1 ATP        -0.8088
     13 O5'         4.6405    3.2699    0.4378 O.3       1 ATP        -0.5646
     14 C5'         4.0922    1.9801    0.2227 C.3       1 ATP         0.2204
     15 C4'         2.5944    2.0310    0.4653 C.3       1 ATP         0.0965
     16 O4'         1.9327    2.5740   -0.6889 O.3       1 ATP        -0.3907
     17 C3'         1.9685    0.6634    0.6767 C.3       1 ATP         0.0763
     18 O3'         2.1425    0.1975    1.9977 O.3       1 ATP        -0.5884
     19 C2'         0.5176    0.9128    0.3099 C.3       1 ATP         0.0784
     20 O2'        -0.2103    1.4454    1.4152 O.3       1 ATP        -0.6085
     21 C1'         0.6219    1.9765   -0.7844 C.3       1 ATP         0.2186
     22 N9          0.4237    1.4496   -2.1357 N.pl3     1 ATP        -0.1699
     23 C8          1.4069    0.9710   -2.9662 C.ar      1 ATP         0.4438
     24 N7          0.9316    0.5623   -4.1260 N.2       1 ATP        -0.6280
     25 C5         -0.4120    0.7884   -4.0344 C.ar      1 ATP         0.2109
     26 C6         -1.4353    0.5283   -5.0204 C.ar      1 ATP         0.6180
     27 N6         -1.1199    0.0176   -6.1586 N.2       1 ATP        -0.8319
     28 N1         -2.6704    0.9095   -4.5147 N.pl3     1 ATP        -0.8664
     29 C2         -2.8863    1.4571   -3.2520 C.ar      1 ATP         0.5952
     30 N3         -1.9805    1.7017   -2.3442 N.2       1 ATP        -0.5599
     31 C4         -0.7561    1.3381   -2.8112 C.ar      1 ATP         0.0076
     32 HOG3        9.5649    1.1922   -4.3587 H         1 ATP         0.4101
     33 H5'1        4.3028    1.6728   -0.8066 H         1 ATP         0.0364
     34 H5'2        4.5677    1.2738    0.9106 H         1 ATP         0.0364
     35 H4'         2.3752    2.7029    1.3156 H         1 ATP         0.0945
     36 H3'         2.4336   -0.1217   -0.0015 H         1 ATP         0.0703
     37 HO3'        3.0987    0.1465    2.1461 H         1 ATP         0.4099
     38 H2'         0.0316    0.0155   -0.0339 H         1 ATP         0.0676
     39 HO2'       -0.1608    0.7921    2.1351 H         1 ATP         0.4291
     40 H1'        -0.1474    2.7798   -0.6651 H         1 ATP         0.0950
     41 H8          2.4466    0.9468   -2.6694 H         1 ATP         0.1135
     42 HN62       -1.9661   -0.0965   -6.7275 H         1 ATP         0.3588
     43 H2         -3.9481    1.6825   -3.0660 H         1 ATP         0.0302
     44 H44        -3.4814    0.7753   -5.1133 H         1 ATP         0.4215
@<TRIPOS>BOND
     1    1    2 2
     2    1    3 1
     3    1    4 1
     4    1    8 1
     5    4   32 1
     6    5    6 2
     7    5    7 1
     8    5    8 1
     9    5   12 1
    10    9   10 2
    11    9   11 1
    12    9   12 1
    13    9   13 1
    14   13   14 1
    15   14   15 1
    16   14   33 1
    17   14   34 1
    18   15   16 1
    19   15   17 1
    20   15   35 1
    21   16   21 1
    22   17   18 1
    23   17   19 1
    24   17   36 1
    25   18   37 1
    26   19   20 1
    27   19   21 1
    28   19   38 1
    29   20   39 1
    30   21   22 1
    31   21   40 1
    32   22   23 ar
    33   22   31 ar
    34   23   24 ar
    35   23   41 1
    36   24   25 ar
    37   25   26 ar
    38   25   31 ar
    39   26   27 2
    40   26   28 ar
    41   27   42 1
    42   28   29 ar
    43   28   44 1
    44   29   30 ar
    45   29   43 1
    46   30   31 ar
@<TRIPOS>SUBSTRUCTURE
     1 ATP         1 GROUP 0 A     ****
@<TRIPOS>MOLECULE
[[[3,4-dihydroxy-5-(6-imino-1~{H}-purin-9-yl)tetrahydrofuran-2-yl]methoxy-oxido-phosphoryl]oxy-oxido-phosphoryl] hydrogen phosphate
   44    46     1     0     0
SMALL
USER_CHARGES

@<TRIPOS>ATOM
      1 PG         -3.0621    4.3832    7.2501 P.3       1 ATP         1.5257
      2 O1G        -2.7949    3.3535    8.3251 O.co2     1 ATP        -0.8737
      3 O2G        -4.4643    4.6259    6.7376 O.co2     1 ATP        -0.8737
      4 O3G        -2.4315    5.8105    7.7307 O.3       1 ATP        -0.7971
      5 PB         -0.4549    3.9205    5.9339 P.3       1 ATP         1.6824
      6 O1B         0.1843    5.2460    6.2829 O.co2     1 ATP        -0.8925
      7 O2B        -0.0811    2.6528    6.6691 O.co2     1 ATP        -0.8925
      8 O3B        -2.0777    4.0936    5.9808 O.3       1 ATP        -0.8047
      9 PA         -0.6907    4.6220    3.0690 P.3       1 ATP         1.5908
     10 O1A         0.1735    5.8638    3.1047 O.co2     1 ATP        -0.8932
     11 O2A        -2.1991    4.7305    3.0177 O.co2     1 ATP        -0.8932
     12 O3A        -0.2873    3.6649    4.3303 O.3       1 ATP        -0.8088
     13 O5'        -0.2062    3.6557    1.8417 O.3       1 ATP        -0.5646
     14 C5'        -0.8811    2.4285    1.6206 C.3       1 ATP         0.2204
     15 C4'        -0.1994    1.3333    2.4288 C.3       1 ATP         0.0965
     16 O4'        -1.1285    0.2356    2.5840 O.3       1 ATP        -0.3907
     17 C3'         1.0324    0.7610    1.7344 C.3       1 ATP         0.0763
     18 O3'         1.9175    0.2377    2.7247 O.3       1 ATP        -0.5884
     19 C2'         0.4468   -0.3802    0.9263 C.3       1 ATP         0.0784
     20 O2'         1.3993   -1.3703    0.5961 O.3       1 ATP        -0.6085
     21 C1'        -0.6159   -0.9100    1.8769 C.3       1 ATP         0.2186
     22 N9         -1.7127   -1.6108    1.2130 N.pl3     1 ATP        -0.1699
     23 C8         -2.5485   -1.0808    0.2609 C.ar      1 ATP         0.4438
     24 N7         -3.4476   -1.9486   -0.1593 N.2       1 ATP        -0.6280
     25 C5         -3.1762   -3.0816    0.5530 C.ar      1 ATP         0.2109
     26 C6         -3.8510   -4.3579    0.5006 C.ar      1 ATP         0.6180
     27 N6         -4.8468   -4.5293   -0.2961 N.2       1 ATP        -0.8319
     28 N1         -3.2499   -5.2342    1.3937 N.pl3     1 ATP        -0.8664
     29 C2         -2.1646   -4.9275    2.2116 C.ar      1 ATP         0.5952
     30 N3         -1.5382   -3.7840    2.2778 N.2       1 ATP        -0.5599
     31 C4         -2.1054   -2.9018    1.4120 C.ar      1 ATP         0.0076
     32 HOG3       -2.5236    6.5854    7.1363 H         1 ATP         0.4101
     33 H5'1       -1.9256    2.5380    1.9293 H         1 ATP         0.0364
     34 H5'2       -0.8474    2.1930    0.5521 H         1 ATP         0.0364
     35 H4'         0.0403    1.7078    3.4343 H         1 ATP         0.0945
     36 H3'         1.5907    1.4859    1.1353 H         1 ATP         0.0703
     37 HO3'        2.1521    0.9800    3.3017 H         1 ATP         0.4099
     38 H2'        -0.0017    0.0018    0.0005 H         1 ATP         0.0676
     39 HO2'        1.7495   -1.7243    1.4324 H         1 ATP         0.4291
     40 H1'        -0.1998   -1.6319    2.6178 H         1 ATP         0.0950
     41 H8         -2.4515   -0.0599   -0.0829 H         1 ATP         0.1135
     42 HN62       -5.1990   -5.4882   -0.2005 H         1 ATP         0.3588
     43 H2         -1.8555   -5.7783    2.8388 H         1 ATP         0.0302
     44 H44        -3.6312   -6.1750    1.4526 H         1 ATP         0.4215
@<TRIPOS>BOND
     1    1    2 2
     2    1    3 1
     3    1    4 1
     4    1    8 1
     5    4   32 1
     6    5    6 2
     7    5    7 1
     8    5    8 1
     9    5   12 1
    10    9   10 2
    11    9   11 1
    12    9   12 1
    13    9   13 1
    14   13   14 1
    15   14   15 1
    16   14   33 1
    17   14   34 1
    18   15   16 1
    19   15   17 1
    20   15   35 1
    21   16   21 1
    22   17   18 1
    23   17   19 1
    24   17   36 1
    25   18   37 1
    26   19   20 1
    27   19   21 1
    28   19   38 1
    29   20   39 1
    30   21   22 1
    31   21   40 1
    32   22   23 ar
    33   22   31 ar
    34   23   24 ar
    35   23   41 1
    36   24   25 ar
    37   25   26 ar
    38   25   31 ar
    39   26   27 2
    40   26   28 ar
    41   27   42 1
    42   28   29 ar
    43   28   44 1
    44   29   30 ar
    45   29   43 1
    46   30   31 ar
@<TRIPOS>SUBSTRUCTURE
     1 ATP         1 GROUP 0 A     ****
@<TRIPOS>MOLECULE
[[[3,4-dihydroxy-5-(6-imino-1~{H}-purin-9-yl)tetrahydrofuran-2-yl]methoxy-oxido-phosphoryl]oxy-oxido-phosphoryl] hydrogen phosphate
   44    46     1     0     0
SMALL
USER_CHARGES

@<TRIPOS>ATOM
      1 PG          4.0628    0.0978   -2.1478 P.3       1 ATP         1.5257
      2 O1G         4.2957   -1.1691   -1.3551 O.co2     1 ATP        -0.8737
      3 O2G         5.2247    0.9372   -2.6306 O.co2     1 ATP        -0.8737
      4 O3G         3.1134   -0.2583   -3.4276 O.3       1 ATP        -0.7971
      5 PB          2.3126    2.4524   -1.7789 P.3       1 ATP         1.6824
      6 O1B         3.3782    3.5175   -1.9116 O.co2     1 ATP        -0.8925
      7 O2B         1.3480    2.1643   -2.9076 O.co2     1 ATP        -0.8925
      8 O3B         3.0241    1.0536   -1.3285 O.3       1 ATP        -0.8047
      9 PA          0.4528    3.9705   -0.0493 P.3       1 ATP         1.5908
     10 O1A        -0.7522    3.9072   -0.9627 O.co2     1 ATP        -0.8932
     11 O2A         1.2755    5.2358    0.0594 O.co2     1 ATP        -0.8932
     12 O3A         1.4568    2.7352   -0.4178 O.3       1 ATP        -0.8088
     13 O5'         0.0178    3.5131    1.4595 O.3       1 ATP        -0.5646
     14 C5'        -0.8811    2.4285    1.6206 C.3       1 ATP         0.2204
     15 C4'        -0.1994    1.3333    2.4288 C.3       1 ATP         0.0965
     16 O4'        -1.1285    0.2356    2.5840 O.3       1 ATP        -0.3907
     17 C3'         1.0324    0.7610    1.7344 C.3       1 ATP         0.0763
     18 O3'         1.9175    0.2377    2.7247 O.3       1 ATP        -0.5884
     19 C2'         0.4468   -0.3802    0.9263 C.3       1 ATP         0.0784
     20 O2'         1.3993   -1.3703    0.5961 O.3       1 ATP        -0.6085
     21 C1'        -0.6159   -0.9100    1.8769 C.3       1 ATP         0.2186
     22 N9         -1.7127   -1.6108    1.2130 N.pl3     1 ATP        -0.1699
     23 C8         -2.8662   -1.0361    0.7388 C.ar      1 ATP         0.4438
     24 N7         -3.6774   -1.9166    0.1867 N.2       1 ATP        -0.6280
     25 C5         -3.0159   -3.1045    0.3122 C.ar      1 ATP         0.2109
     26 C6         -3.4377   -4.4169   -0.1199 C.ar      1 ATP         0.6180
     27 N6         -4.5720   -4.5691   -0.7080 N.2       1 ATP        -0.8319
     28 N1         -2.4600   -5.3463    0.2071 N.pl3     1 ATP        -0.8664
     29 C2         -1.2595   -5.0554    0.8515 C.ar      1 ATP         0.5952
     30 N3         -0.8555   -3.8803    1.2516 N.2       1 ATP        -0.5599
     31 C4         -1.7946   -2.9457    0.9448 C.ar      1 ATP         0.0076
     32 HOG3        2.8699    0.4650   -4.0438 H         1 ATP         0.4101
     33 H5'1       -1.7771    2.7849    2.1387 H         1 ATP         0.0364
     34 H5'2       -1.1654    2.0541    0.6320 H         1 ATP         0.0364
     35 H4'         0.0403    1.7078    3.4343 H         1 ATP         0.0945
     36 H3'         1.5907    1.4859    1.1353 H         1 ATP         0.0703
     37 HO3'        2.1521    0.9800    3.3017 H         1 ATP         0.4099
     38 H2'        -0.0017    0.0018    0.0005 H         1 ATP         0.0676
     39 HO2'        2.0953   -0.9375    0.0709 H         1 ATP         0.4291
     40 H1'        -0.1998   -1.6319    2.6178 H         1 ATP         0.0950
     41 H8         -3.0558    0.0252    0.8256 H         1 ATP         0.1135
     42 HN62       -4.7047   -5.5592   -0.9421 H         1 ATP         0.3588
     43 H2         -0.6372   -5.9505    1.0077 H         1 ATP         0.0302
     44 H44        -2.6338   -6.3155   -0.0469 H         1 ATP         0.4215
@<TRIPOS>BOND
     1    1    2 2
     2    1    3 1
     3    1    4 1
     4    1    8 1
     5    4   32 1
     6    5    6 2
     7    5    7 1
     8    5    8 1
     9    5   12 1
    10    9   10 2
    11    9   11 1
    12    9   12 1
    13    9   13 1
    14   13   14 1
    15   14   15 1
    16   14   33 1
    17   14   34 1
    18   15   16 1
    19   15   17 1
    20   15   35 1
    21   16   21 1
    22   17   18 1
    23   17   19 1
    24   17   36 1
    25   18   37 1
    26   19   20 1
    27   19   21 1
    28   19   38 1
    29   20   39 1
    30   21   22 1
    31   21   40 1
    32   22   23 ar
    33   22   31 ar
    34   23   24 ar
    35   23   41 1
    36   24   25 ar
    37   25   26 ar
    38   25   31 ar
    39   26   27 2
    40   26   28 ar
    41   27   42 1
    42   28   29 ar
    43   28   44 1
    44   29   30 ar
    45   29   43 1
    46   30   31 ar
@<TRIPOS>SUBSTRUCTURE
     1 ATP         1 GROUP 0 A     ****
@<TRIPOS>MOLECULE
[[[3,4-dihydroxy-5-(6-imino-1~{H}-purin-9-yl)tetrahydrofuran-2-yl]methoxy-oxido-phosphoryl]oxy-oxido-phosphoryl] hydrogen phosphate
   44    46     1     0     0
SMALL
USER_CHARGES

@<TRIPOS>ATOM
      1 PG         -6.2056    0.7653    5.9598 P.3       1 ATP         1.5257
      2 O1G        -7.3060    0.1541    5.1214 O.co2     1 ATP        -0.8737
      3 O2G        -6.4815    1.9471    6.8625 O.co2     1 ATP        -0.8737
      4 O3G        -5.5142   -0.4163    6.8495 O.3       1 ATP        -0.7971
      5 PB         -4.1224    0.1715    3.9470 P.3       1 ATP         1.6824
      6 O1B        -3.3841   -0.8915    4.7296 O.co2     1 ATP        -0.8925
      7 O2B        -5.0447   -0.1947    2.8056 O.co2     1 ATP        -0.8925
      8 O3B        -4.9382    1.1212    4.9950 O.3       1 ATP        -0.8047
      9 PA         -3.2890    2.7005    2.6567 P.3       1 ATP         1.5908
     10 O1A        -3.9939    3.6421    3.6090 O.co2     1 ATP        -0.8932
     11 O2A        -3.8602    2.4175    1.2844 O.co2     1 ATP        -0.8932
     12 O3A        -3.0427    1.2741    3.4147 O.3       1 ATP        -0.8088
     13 O5'        -1.7336    3.1724    2.4750 O.3       1 ATP        -0.5646
     14 C5'        -0.8811    2.4285    1.6206 C.3       1 ATP         0.2204
     15 C4'        -0.1994    1.3333    2.4288 C.3       1 ATP         0.0965
     16 O4'        -1.1285    0.2356    2.5840 O.3       1 ATP        -0.3907
     17 C3'         1.0324    0.7610    1.7344 C.3       1 ATP         0.0763
     18 O3'         1.9175    0.2377    2.7247 O.3       1 ATP        -0.5884
     19 C2'         0.4468   -0.3802    0.9263 C.3       1 ATP         0.0784
     20 O2'         1.3993   -1.3703    0.5961 O.3       1 ATP        -0.6085
     21 C1'        -0.6159   -0.9100    1.8769 C.3       1 ATP         0.2186
     22 N9         -1.7127   -1.6108    1.2130 N.pl3     1 ATP        -0.1699
     23 C8         -2.8662   -1.0361    0.7388 C.ar      1 ATP         0.4438
     24 N7         -3.6774   -1.9166    0.1867 N.2       1 ATP        -0.6280
     25 C5         -3.0159   -3.1045    0.3122 C.ar      1 ATP         0.2109
     26 C6         -3.4377   -4.4169   -0.1199 C.ar      1 ATP         0.6180
     27 N6         -4.5720   -4.5691   -0.7080 N.2       1 ATP        -0.8319
     28 N1         -2.4600   -5.3463    0.2071 N.pl3     1 ATP        -0.8664
     29 C2         -1.2595   -5.0554    0.8515 C.ar      1 ATP         0.5952
     30 N3         -0.8555   -3.8803    1.2516 N.2       1 ATP        -0.5599
     31 C4         -1.7946   -2.9457    0.9448 C.ar      1 ATP         0.0076
     32 HOG3       -4.7769   -0.1773    7.4508 H         1 ATP         0.4101
     33 H5'1       -1.4800    1.9927    0.8146 H         1 ATP         0.0364
     34 H5'2       -0.1367    3.1040    1.1872 H         1 ATP         0.0364
     35 H4'         0.0403    1.7078    3.4343 H         1 ATP         0.0945
     36 H3'         1.5907    1.4859    1.1353 H         1 ATP         0.0703
     37 HO3'        2.6839   -0.1150    2.2479 H         1 ATP         0.4099
     38 H2'        -0.0017    0.0018    0.0005 H         1 ATP         0.0676
     39 HO2'        0.9369   -2.0558    0.0825 H         1 ATP         0.4291
     40 H1'        -0.1998   -1.6319    2.6178 H         1 ATP         0.0950
     41 H8         -3.0558    0.0252    0.8256 H         1 ATP         0.1135
     42 HN62       -4.7047   -5.5592   -0.9421 H         1 ATP         0.3588
     43 H2         -0.6372   -5.9505    1.0077 H         1 ATP         0.0302
     44 H44        -2.6338   -6.3155   -0.0469 H         1 ATP         0.4215
@<TRIPOS>BOND
     1    1    2 2
     2    1    3 1
     3    1    4 1
     4    1    8 1
     5    4   32 1
     6    5    6 2
     7    5    7 1
     8    5    8 1
     9    5   12 1
    10    9   10 2
    11    9   11 1
    12    9   12 1
    13    9   13 1
    14   13   14 1
    15   14   15 1
    16   14   33 1
    17   14   34 1
    18   15   16 1
    19   15   17 1
    20   15   35 1
    21   16   21 1
    22   17   18 1
    23   17   19 1
    24   17   36 1
    25   18   37 1
    26   19   20 1
    27   19   21 1
    28   19   38 1
    29   20   39 1
    30   21   22 1
    31   21   40 1
    32   22   23 ar
    33   22   31 ar
    34   23   24 ar
    35   23   41 1
    36   24   25 ar
    37   25   26 ar
    38   25   31 ar
    39   26   27 2
    40   26   28 ar
    41   27   42 1
    42   28   29 ar
    43   28   44 1
    44   29   30 ar
    45   29   43 1
    46   30   31 ar
@<TRIPOS>SUBSTRUCTURE
     1 ATP         1 GROUP 0 A     ****
@<TRIPOS>MOLECULE
[[[3,4-dihydroxy-5-(6-imino-1~{H}-purin-9-yl)tetrahydrofuran-2-yl]methoxy-oxido-phosphoryl]oxy-oxido-phosphoryl] hydrogen phosphate
   44    46     1     0     0
SMALL
USER_CHARGES

@<TRIPOS>ATOM
      1 PG          2.7214    5.1358   -5.1094 P.3       1 ATP         1.5257
      2 O1G         3.3763    4.0789   -5.9705 O.co2     1 ATP        -0.8737
      3 O2G         3.0004    6.6051   -5.3354 O.co2     1 ATP        -0.8737
      4 O3G         1.1056    4.9038   -5.1427 O.3       1 ATP        -0.7971
      5 PB          2.3936    5.4869   -2.1917 P.3       1 ATP         1.6824
      6 O1B         2.9456    6.8917   -2.0952 O.co2     1 ATP        -0.8925
      7 O2B         0.9058    5.2234   -2.1237 O.co2     1 ATP        -0.8925
      8 O3B         2.9890    4.7821   -3.5387 O.3       1 ATP        -0.8047
      9 PA          4.7368    4.3145   -0.8169 P.3       1 ATP         1.5908
     10 O1A         5.3515    5.6144   -0.3450 O.co2     1 ATP        -0.8932
     11 O2A         5.3105    3.5740   -2.0052 O.co2     1 ATP        -0.8932
     12 O3A         3.1422    4.5531   -1.0815 O.3       1 ATP        -0.8088
     13 O5'         4.6405    3.2699    0.4378 O.3       1 ATP        -0.5646
     14 C5'         4.0922    1.9801    0.2227 C.3       1 ATP         0.2204
     15 C4'         2.5944    2.0310    0.4653 C.3       1 ATP         0.0965
     16 O4'         1.9327    2.5740   -0.6889 O.3       1 ATP        -0.3907
     17 C3'         1.9685    0.6634    0.6767 C.3       1 ATP         0.0763
     18 O3'         2.1425    0.1975    1.9977 O.3       1 ATP        -0.5884
     19 C2'         0.5176    0.9128    0.3099 C.3       1 ATP         0.0784
     20 O2'        -0.2103    1.4454    1.4152 O.3       1 ATP        -0.6085
     21 C1'         0.6219    1.9765   -0.7844 C.3       1 ATP         0.2186
     22 N9          0.4237    1.4496   -2.1357 N.pl3     1 ATP        -0.1699
     23 C8          1.4069    0.9710   -2.9662 C.ar      1 ATP         0.4438
     24 N7          0.9316    0.5623   -4.1260 N.2       1 ATP        -0.6280
     25 C5         -0.4120    0.7884   -4.0344 C.ar      1 ATP         0.2109
     26 C6         -1.4353    0.5283   -5.0204 C.ar      1 ATP         0.6180
     27 N6         -1.1199    0.0176   -6.1586 N.2       1 ATP        -0.8319
     28 N1         -2.6704    0.9095   -4.5147 N.pl3     1 ATP        -0.8664
     29 C2         -2.8863    1.4571   -3.2520 C.ar      1 ATP         0.5952
     30 N3         -1.9805    1.7017   -2.3442 N.2       1 ATP        -0.5599
     31 C4         -0.7561    1.3381   -2.8112 C.ar      1 ATP         0.0076
     32 HOG3        0.5355    5.5144   -4.6283 H         1 ATP         0.4101
     33 H5'1        4.3028    1.6728   -0.8066 H         1 ATP         0.0364
     34 H5'2        4.5677    1.2738    0.9106 H         1 ATP         0.0364
     35 H4'         2.3752    2.7029    1.3156 H         1 ATP         0.0945
     36 H3'         2.4336   -0.1217   -0.0015 H         1 ATP         0.0703
     37 HO3'        1.7160   -0.6716    2.0397 H         1 ATP         0.4099
     38 H2'         0.0316    0.0155   -0.0339 H         1 ATP         0.0676
     39 HO2'       -1.1270    1.5823    1.1180 H         1 ATP         0.4291
     40 H1'        -0.1474    2.7798   -0.6651 H         1 ATP         0.0950
     41 H8          2.4466    0.9468   -2.6694 H         1 ATP         0.1135
     42 HN62       -1.9661   -0.0965   -6.7275 H         1 ATP         0.3588
     43 H2         -3.9481    1.6825   -3.0660 H         1 ATP         0.0302
     44 H44        -3.4814    0.7753   -5.1133 H         1 ATP         0.4215
@<TRIPOS>BOND
     1    1    2 2
     2    1    3 1
     3    1    4 1
     4    1    8 1
     5    4   32 1
     6    5    6 2
     7    5    7 1
     8    5    8 1
     9    5   12 1
    10    9   10 2
    11    9   11 1
    12    9   12 1
    13    9   13 1
    14   13   14 1
    15   14   15 1
    16   14   33 1
    17   14   34 1
    18   15   16 1
    19   15   17 1
    20   15   35 1
    21   16   21 1
    22   17   18 1
    23   17   19 1
    24   17   36 1
    25   18   37 1
    26   19   20 1
    27   19   21 1
    28   19   38 1
    29   20   39 1
    30   21   22 1
    31   21   40 1
    32   22   23 ar
    33   22   31 ar
    34   23   24 ar
    35   23   41 1
    36   24   25 ar
    37   25   26 ar
    38   25   31 ar
    39   26   27 2
    40   26   28 ar
    41   27   42 1
    42   28   29 ar
    43   28   44 1
    44   29   30 ar
    45   29   43 1
    46   30   31 ar
@<TRIPOS>SUBSTRUCTURE
     1 ATP         1 GROUP 0 A     ****
@<TRIPOS>MOLECULE
[[[3,4-dihydroxy-5-(6-imino-1~{H}-purin-9-yl)tetrahydrofuran-2-yl]methoxy-oxido-phosphoryl]oxy-oxido-phosphoryl] hydrogen phosphate
   44    46     1     0     0
SMALL
USER_CHARGES

@<TRIPOS>ATOM
      1 PG         -5.5241   -1.9806    2.8178 P.3       1 ATP         1.5257
      2 O1G        -5.9996   -2.3886    1.4413 O.co2     1 ATP        -0.8737
      3 O2G        -6.4960   -1.8528    3.9697 O.co2     1 ATP        -0.8737
      4 O3G        -4.3162   -2.9830    3.2675 O.3       1 ATP        -0.7971
      5 PB         -5.1531    0.9035    2.2813 P.3       1 ATP         1.6824
      6 O1B        -5.5746    0.8934    0.8289 O.co2     1 ATP        -0.8925
      7 O2B        -6.0735    1.4284    3.3605 O.co2     1 ATP        -0.8925
      8 O3B        -4.6647   -0.5986    2.6949 O.3       1 ATP        -0.8047
      9 PA         -3.3347    3.2338    2.1468 P.3       1 ATP         1.5908
     10 O1A        -4.0314    4.0802    3.1901 O.co2     1 ATP        -0.8932
     11 O2A        -3.5037    3.5289    0.6724 O.co2     1 ATP        -0.8932
     12 O3A        -3.7146    1.6655    2.4035 O.3       1 ATP        -0.8088
     13 O5'        -1.7336    3.1724    2.4750 O.3       1 ATP        -0.5646
     14 C5'        -0.8811    2.4285    1.6206 C.3       1 ATP         0.2204
     15 C4'        -0.1994    1.3333    2.4288 C.3       1 ATP         0.0965
     16 O4'        -1.1285    0.2356    2.5840 O.3       1 ATP        -0.3907
     17 C3'         1.0324    0.7610    1.7344 C.3       1 ATP         0.0763
     18 O3'         1.9175    0.2377    2.7247 O.3       1 ATP        -0.5884
     19 C2'         0.4468   -0.3802    0.9263 C.3       1 ATP         0.0784
     20 O2'         1.3993   -1.3703    0.5961 O.3       1 ATP        -0.6085
     21 C1'        -0.6159   -0.9100    1.8769 C.3       1 ATP         0.2186
     22 N9         -1.7127   -1.6108    1.2130 N.pl3     1 ATP        -0.1699
     23 C8         -2.8662   -1.0361    0.7388 C.ar      1 ATP         0.4438
     24 N7         -3.6774   -1.9166    0.1867 N.2       1 ATP        -0.6280
     25 C5         -3.0159   -3.1045    0.3122 C.ar      1 ATP         0.2109
     26 C6         -3.4377   -4.4169   -0.1199 C.ar      1 ATP         0.6180
     27 N6         -4.5720   -4.5691   -0.7080 N.2       1 ATP        -0.8319
     28 N1         -2.4600   -5.3463    0.2071 N.pl3     1 ATP        -0.8664
     29 C2         -1.2595   -5.0554    0.8515 C.ar      1 ATP         0.5952
     30 N3         -0.8555   -3.8803    1.2516 N.2       1 ATP        -0.5599
     31 C4         -1.7946   -2.9457    0.9448 C.ar      1 ATP         0.0076
     32 HOG3       -3.8986   -2.8468    4.1446 H         1 ATP         0.4101
     33 H5'1       -1.4800    1.9927    0.8146 H         1 ATP         0.0364
     34 H5'2       -0.1367    3.1040    1.1872 H         1 ATP         0.0364
     35 H4'         0.0403    1.7078    3.4343 H         1 ATP         0.0945
     36 H3'         1.5907    1.4859    1.1353 H         1 ATP         0.0703
     37 HO3'        2.1521    0.9800    3.3017 H         1 ATP         0.4099
     38 H2'        -0.0017    0.0018    0.0005 H         1 ATP         0.0676
     39 HO2'        0.9369   -2.0558    0.0825 H         1 ATP         0.4291
     40 H1'        -0.1998   -1.6319    2.6178 H         1 ATP         0.0950
     41 H8         -3.0558    0.0252    0.8256 H         1 ATP         0.1135
     42 HN62       -4.7047   -5.5592   -0.9421 H         1 ATP         0.3588
     43 H2         -0.6372   -5.9505    1.0077 H         1 ATP         0.0302
     44 H44        -2.6338   -6.3155   -0.0469 H         1 ATP         0.4215
@<TRIPOS>BOND
     1    1    2 2
     2    1    3 1
     3    1    4 1
     4    1    8 1
     5    4   32 1
     6    5    6 2
     7    5    7 1
     8    5    8 1
     9    5   12 1
    10    9   10 2
    11    9   11 1
    12    9   12 1
    13    9   13 1
    14   13   14 1
    15   14   15 1
    16   14   33 1
    17   14   34 1
    18   15   16 1
    19   15   17 1
    20   15   35 1
    21   16   21 1
    22   17   18 1
    23   17   19 1
    24   17   36 1
    25   18   37 1
    26   19   20 1
    27   19   21 1
    28   19   38 1
    29   20   39 1
    30   21   22 1
    31   21   40 1
    32   22   23 ar
    33   22   31 ar
    34   23   24 ar
    35   23   41 1
    36   24   25 ar
    37   25   26 ar
    38   25   31 ar
    39   26   27 2
    40   26   28 ar
    41   27   42 1
    42   28   29 ar
    43   28   44 1
    44   29   30 ar
    45   29   43 1
    46   30   31 ar
@<TRIPOS>SUBSTRUCTURE
     1 ATP         1 GROUP 0 A     ****
@<TRIPOS>MOLECULE
[[[3,4-dihydroxy-5-(6-imino-1~{H}-purin-9-yl)tetrahydrofuran-2-yl]methoxy-oxido-phosphoryl]oxy-oxido-phosphoryl] hydrogen phosphate
   44    46     1     0     0
SMALL
USER_CHARGES

@<TRIPOS>ATOM
      1 PG         -4.3903    5.5837   -1.9434 P.3       1 ATP         1.5257
      2 O1G        -3.0763    6.3091   -1.7576 O.co2     1 ATP        -0.8737
      3 O2G        -5.7033    6.2560   -1.6094 O.co2     1 ATP        -0.8737
      4 O3G        -4.4659    5.0323   -3.4784 O.3       1 ATP        -0.7971
      5 PB         -4.2227    3.8257    0.4283 P.3       1 ATP         1.6824
      6 O1B        -5.3447    4.5505    1.1379 O.co2     1 ATP        -0.8925
      7 O2B        -4.0117    2.3392    0.6107 O.co2     1 ATP        -0.8925
      8 O3B        -4.3188    4.1486   -1.1692 O.3       1 ATP        -0.8047
      9 PA         -2.0037    4.7528    2.1522 P.3       1 ATP         1.5908
     10 O1A        -2.9381    5.3281    3.1945 O.co2     1 ATP        -0.8932
     11 O2A        -0.6722    5.4096    1.8602 O.co2     1 ATP        -0.8932
     12 O3A        -2.8191    4.5967    0.7449 O.3       1 ATP        -0.8088
     13 O5'        -1.7336    3.1724    2.4750 O.3       1 ATP        -0.5646
     14 C5'        -0.8811    2.4285    1.6206 C.3       1 ATP         0.2204
     15 C4'        -0.1994    1.3333    2.4288 C.3       1 ATP         0.0965
     16 O4'        -1.1285    0.2356    2.5840 O.3       1 ATP        -0.3907
     17 C3'         1.0324    0.7610    1.7344 C.3       1 ATP         0.0763
     18 O3'         1.9175    0.2377    2.7247 O.3       1 ATP        -0.5884
     19 C2'         0.4468   -0.3802    0.9263 C.3       1 ATP         0.0784
     20 O2'         1.3993   -1.3703    0.5961 O.3       1 ATP        -0.6085
     21 C1'        -0.6159   -0.9100    1.8769 C.3       1 ATP         0.2186
     22 N9         -1.7127   -1.6108    1.2130 N.pl3     1 ATP        -0.1699
     23 C8         -2.0868   -2.9137    1.4327 C.ar      1 ATP         0.4438
     24 N7         -3.1125   -3.2756    0.6878 N.2       1 ATP        -0.6280
     25 C5         -3.4079   -2.1580   -0.0391 C.ar      1 ATP         0.2109
     26 C6         -4.4483   -1.9775   -1.0249 C.ar      1 ATP         0.6180
     27 N6         -5.2418   -2.9492   -1.3113 N.2       1 ATP        -0.8319
     28 N1         -4.3937   -0.6823   -1.5211 N.pl3     1 ATP        -0.8664
     29 C2         -3.4770    0.2901   -1.1271 C.ar      1 ATP         0.5952
     30 N3         -2.5289    0.1525   -0.2402 N.2       1 ATP        -0.5599
     31 C4         -2.5564   -1.1096    0.2655 C.ar      1 ATP         0.0076
     32 HOG3       -5.2646    4.5358   -3.7574 H         1 ATP         0.4101
     33 H5'1       -1.4800    1.9927    0.8146 H         1 ATP         0.0364
     34 H5'2       -0.1367    3.1040    1.1872 H         1 ATP         0.0364
     35 H4'         0.0403    1.7078    3.4343 H         1 ATP         0.0945
     36 H3'         1.5907    1.4859    1.1353 H         1 ATP         0.0703
     37 HO3'        2.6839   -0.1150    2.2479 H         1 ATP         0.4099
     38 H2'        -0.0017    0.0018    0.0005 H         1 ATP         0.0676
     39 HO2'        0.9369   -2.0558    0.0825 H         1 ATP         0.4291
     40 H1'        -0.1998   -1.6319    2.6178 H         1 ATP         0.0950
     41 H8         -1.5740   -3.5449    2.1457 H         1 ATP         0.1135
     42 HN62       -5.9117   -2.6433   -2.0256 H         1 ATP         0.3588
     43 H2         -3.6225    1.2454   -1.6553 H         1 ATP         0.0302
     44 H44        -5.0794   -0.4231   -2.2258 H         1 ATP         0.4215
@<TRIPOS>BOND
     1    1    2 2
     2    1    3 1
     3    1    4 1
     4    1    8 1
     5    4   32 1
     6    5    6 2
     7    5    7 1
     8    5    8 1
     9    5   12 1
    10    9   10 2
    11    9   11 1
    12    9   12 1
    13    9   13 1
    14   13   14 1
    15   14   15 1
    16   14   33 1
    17   14   34 1
    18   15   16 1
    19   15   17 1
    20   15   35 1
    21   16   21 1
    22   17   18 1
    23   17   19 1
    24   17   36 1
    25   18   37 1
    26   19   20 1
    27   19   21 1
    28   19   38 1
    29   20   39 1
    30   21   22 1
    31   21   40 1
    32   22   23 ar
    33   22   31 ar
    34   23   24 ar
    35   23   41 1
    36   24   25 ar
    37   25   26 ar
    38   25   31 ar
    39   26   27 2
    40   26   28 ar
    41   27   42 1
    42   28   29 ar
    43   28   44 1
    44   29   30 ar
    45   29   43 1
    46   30   31 ar
@<TRIPOS>SUBSTRUCTURE
     1 ATP         1 GROUP 0 A     ****
@<TRIPOS>MOLECULE
[[[3,4-dihydroxy-5-(6-imino-1~{H}-purin-9-yl)tetrahydrofuran-2-yl]methoxy-oxido-phosphoryl]oxy-oxido-phosphoryl] hydrogen phosphate
   44    46     1     0     0
SMALL
USER_CHARGES

@<TRIPOS>ATOM
      1 PG         -6.3516    3.0711   -1.5993 P.3       1 ATP         1.5257
      2 O1G        -7.5885    3.7591   -1.0663 O.co2     1 ATP        -0.8737
      3 O2G        -6.3634    1.5943   -1.9259 O.co2     1 ATP        -0.8737
      4 O3G        -5.8287    3.8883   -2.9125 O.3       1 ATP        -0.7971
      5 PB         -4.5240    4.8101   -0.0567 P.3       1 ATP         1.6824
      6 O1B        -3.9403    5.5739   -1.2243 O.co2     1 ATP        -0.8925
      7 O2B        -5.5603    5.4364    0.8497 O.co2     1 ATP        -0.8925
      8 O3B        -5.0988    3.3819   -0.6004 O.3       1 ATP        -0.8047
      9 PA         -3.3347    3.2338    2.1468 P.3       1 ATP         1.5908
     10 O1A        -3.8074    1.8725    1.6847 O.co2     1 ATP        -0.8932
     11 O2A        -4.0244    3.9450    3.2906 O.co2     1 ATP        -0.8932
     12 O3A        -3.2997    4.2420    0.8615 O.3       1 ATP        -0.8088
     13 O5'        -1.7336    3.1724    2.4750 O.3       1 ATP        -0.5646
     14 C5'        -0.8811    2.4285    1.6206 C.3       1 ATP         0.2204
     15 C4'        -0.1994    1.3333    2.4288 C.3       1 ATP         0.0965
     16 O4'        -1.1285    0.2356    2.5840 O.3       1 ATP        -0.3907
     17 C3'         1.0324    0.7610    1.7344 C.3       1 ATP         0.0763
     18 O3'         1.9175    0.2377    2.7247 O.3       1 ATP        -0.5884
     19 C2'         0.4468   -0.3802    0.9263 C.3       1 ATP         0.0784
     20 O2'         1.3993   -1.3703    0.5961 O.3       1 ATP        -0.6085
     21 C1'        -0.6159   -0.9100    1.8769 C.3       1 ATP         0.2186
     22 N9         -1.7127   -1.6108    1.2130 N.pl3     1 ATP        -0.1699
     23 C8         -2.8662   -1.0361    0.7388 C.ar      1 ATP         0.4438
     24 N7         -3.6774   -1.9166    0.1867 N.2       1 ATP        -0.6280
     25 C5         -3.0159   -3.1045    0.3122 C.ar      1 ATP         0.2109
     26 C6         -3.4377   -4.4169   -0.1199 C.ar      1 ATP         0.6180
     27 N6         -4.5720   -4.5691   -0.7080 N.2       1 ATP        -0.8319
     28 N1         -2.4600   -5.3463    0.2071 N.pl3     1 ATP        -0.8664
     29 C2         -1.2595   -5.0554    0.8515 C.ar      1 ATP         0.5952
     30 N3         -0.8555   -3.8803    1.2516 N.2       1 ATP        -0.5599
     31 C4         -1.7946   -2.9457    0.9448 C.ar      1 ATP         0.0076
     32 HOG3       -5.5777    4.8307   -2.8066 H         1 ATP         0.4101
     33 H5'1       -1.4800    1.9927    0.8146 H         1 ATP         0.0364
     34 H5'2       -0.1367    3.1040    1.1872 H         1 ATP         0.0364
     35 H4'         0.0403    1.7078    3.4343 H         1 ATP         0.0945
     36 H3'         1.5907    1.4859    1.1353 H         1 ATP         0.0703
     37 HO3'        1.4256   -0.4528    3.1940 H         1 ATP         0.4099
     38 H2'        -0.0017    0.0018    0.0005 H         1 ATP         0.0676
     39 HO2'        2.0953   -0.9375    0.0709 H         1 ATP         0.4291
     40 H1'        -0.1998   -1.6319    2.6178 H         1 ATP         0.0950
     41 H8         -3.0558    0.0252    0.8256 H         1 ATP         0.1135
     42 HN62       -4.7047   -5.5592   -0.9421 H         1 ATP         0.3588
     43 H2         -0.6372   -5.9505    1.0077 H         1 ATP         0.0302
     44 H44        -2.6338   -6.3155   -0.0469 H         1 ATP         0.4215
@<TRIPOS>BOND
     1    1    2 2
     2    1    3 1
     3    1    4 1
     4    1    8 1
     5    4   32 1
     6    5    6 2
     7    5    7 1
     8    5    8 1
     9    5   12 1
    10    9   10 2
    11    9   11 1
    12    9   12 1
    13    9   13 1
    14   13   14 1
    15   14   15 1
    16   14   33 1
    17   14   34 1
    18   15   16 1
    19   15   17 1
    20   15   35 1
    21   16   21 1
    22   17   18 1
    23   17   19 1
    24   17   36 1
    25   18   37 1
    26   19   20 1
    27   19   21 1
    28   19   38 1
    29   20   39 1
    30   21   22 1
    31   21   40 1
    32   22   23 ar
    33   22   31 ar
    34   23   24 ar
    35   23   41 1
    36   24   25 ar
    37   25   26 ar
    38   25   31 ar
    39   26   27 2
    40   26   28 ar
    41   27   42 1
    42   28   29 ar
    43   28   44 1
    44   29   30 ar
    45   29   43 1
    46   30   31 ar
@<TRIPOS>SUBSTRUCTURE
     1 ATP         1 GROUP 0 A     ****
@<TRIPOS>MOLECULE
[[[3,4-dihydroxy-5-(6-imino-1~{H}-purin-9-yl)tetrahydrofuran-2-yl]methoxy-oxido-phosphoryl]oxy-oxido-phosphoryl] hydrogen phosphate
   44    46     1     0     0
SMALL
USER_CHARGES

@<TRIPOS>ATOM
      1 PG         -6.2056    0.7653    5.9598 P.3       1 ATP         1.5257
      2 O1G        -6.7000    2.0371    6.6121 O.co2     1 ATP        -0.8737
      3 O2G        -5.8632   -0.4517    6.7900 O.co2     1 ATP        -0.8737
      4 O3G        -7.2756    0.3232    4.8084 O.3       1 ATP        -0.7971
      5 PB         -4.1224    0.1715    3.9470 P.3       1 ATP         1.6824
      6 O1B        -3.3841   -0.8915    4.7296 O.co2     1 ATP        -0.8925
      7 O2B        -5.0447   -0.1947    2.8056 O.co2     1 ATP        -0.8925
      8 O3B        -4.9382    1.1212    4.9950 O.3       1 ATP        -0.8047
      9 PA         -3.2890    2.7005    2.6567 P.3       1 ATP         1.5908
     10 O1A        -3.9939    3.6421    3.6090 O.co2     1 ATP        -0.8932
     11 O2A        -3.8602    2.4175    1.2844 O.co2     1 ATP        -0.8932
     12 O3A        -3.0427    1.2741    3.4147 O.3       1 ATP        -0.8088
     13 O5'        -1.7336    3.1724    2.4750 O.3       1 ATP        -0.5646
     14 C5'        -0.8811    2.4285    1.6206 C.3       1 ATP         0.2204
     15 C4'        -0.1994    1.3333    2.4288 C.3       1 ATP         0.0965
     16 O4'        -1.1285    0.2356    2.5840 O.3       1 ATP        -0.3907
     17 C3'         1.0324    0.7610    1.7344 C.3       1 ATP         0.0763
     18 O3'         1.9175    0.2377    2.7247 O.3       1 ATP        -0.5884
     19 C2'         0.4468   -0.3802    0.9263 C.3       1 ATP         0.0784
     20 O2'         1.3993   -1.3703    0.5961 O.3       1 ATP        -0.6085
     21 C1'        -0.6159   -0.9100    1.8769 C.3       1 ATP         0.2186
     22 N9         -1.7127   -1.6108    1.2130 N.pl3     1 ATP        -0.1699
     23 C8         -2.0868   -2.9137    1.4327 C.ar      1 ATP         0.4438
     24 N7         -3.1125   -3.2756    0.6878 N.2       1 ATP        -0.6280
     25 C5         -3.4079   -2.1580   -0.0391 C.ar      1 ATP         0.2109
     26 C6         -4.4483   -1.9775   -1.0249 C.ar      1 ATP         0.6180
     27 N6         -5.2418   -2.9492   -1.3113 N.2       1 ATP        -0.8319
     28 N1         -4.3937   -0.6823   -1.5211 N.pl3     1 ATP        -0.8664
     29 C2         -3.4770    0.2901   -1.1271 C.ar      1 ATP         0.5952
     30 N3         -2.5289    0.1525   -0.2402 N.2       1 ATP        -0.5599
     31 C4         -2.5564   -1.1096    0.2655 C.ar      1 ATP         0.0076
     32 HOG3       -7.0947   -0.4901    4.2906 H         1 ATP         0.4101
     33 H5'1       -1.4800    1.9927    0.8146 H         1 ATP         0.0364
     34 H5'2       -0.1367    3.1040    1.1872 H         1 ATP         0.0364
     35 H4'         0.0403    1.7078    3.4343 H         1 ATP         0.0945
     36 H3'         1.5907    1.4859    1.1353 H         1 ATP         0.0703
     37 HO3'        2.6839   -0.1150    2.2479 H         1 ATP         0.4099
     38 H2'        -0.0017    0.0018    0.0005 H         1 ATP         0.0676
     39 HO2'        2.0953   -0.9375    0.0709 H         1 ATP         0.4291
     40 H1'        -0.1998   -1.6319    2.6178 H         1 ATP         0.0950
     41 H8         -1.5740   -3.5449    2.1457 H         1 ATP         0.1135
     42 HN62       -5.9117   -2.6433   -2.0256 H         1 ATP         0.3588
     43 H2         -3.6225    1.2454   -1.6553 H         1 ATP         0.0302
     44 H44        -5.0794   -0.4231   -2.2258 H         1 ATP         0.4215
@<TRIPOS>BOND
     1    1    2 2
     2    1    3 1
     3    1    4 1
     4    1    8 1
     5    4   32 1
     6    5    6 2
     7    5    7 1
     8    5    8 1
     9    5   12 1
    10    9   10 2
    11    9   11 1
    12    9   12 1
    13    9   13 1
    14   13   14 1
    15   14   15 1
    16   14   33 1
    17   14   34 1
    18   15   16 1
    19   15   17 1
    20   15   35 1
    21   16   21 1
    22   17   18 1
    23   17   19 1
    24   17   36 1
    25   18   37 1
    26   19   20 1
    27   19   21 1
    28   19   38 1
    29   20   39 1
    30   21   22 1
    31   21   40 1
    32   22   23 ar
    33   22   31 ar
    34   23   24 ar
    35   23   41 1
    36   24   25 ar
    37   25   26 ar
    38   25   31 ar
    39   26   27 2
    40   26   28 ar
    41   27   42 1
    42   28   29 ar
    43   28   44 1
    44   29   30 ar
    45   29   43 1
    46   30   31 ar
@<TRIPOS>SUBSTRUCTURE
     1 ATP         1 GROUP 0 A     ****
@<TRIPOS>MOLECULE
[[[3,4-dihydroxy-5-(6-imino-1~{H}-purin-9-yl)tetrahydrofuran-2-yl]methoxy-oxido-phosphoryl]oxy-oxido-phosphoryl] hydrogen phosphate
   44    46     1     0     0
SMALL
USER_CHARGES

@<TRIPOS>ATOM
      1 PG         -3.3561   -2.3446    5.2980 P.3       1 ATP         1.5257
      2 O1G        -2.0514   -2.8911    5.8333 O.co2     1 ATP        -0.8737
      3 O2G        -4.2448   -3.1859    4.4091 O.co2     1 ATP        -0.8737
      4 O3G        -4.2454   -1.8011    6.5548 O.3       1 ATP        -0.7971
      5 PB         -4.1224    0.1715    3.9470 P.3       1 ATP         1.6824
      6 O1B        -4.8150   -0.4449    2.7521 O.co2     1 ATP        -0.8925
      7 O2B        -4.9138    0.7773    5.0847 O.co2     1 ATP        -0.8925
      8 O3B        -3.0714   -0.9163    4.5614 O.3       1 ATP        -0.8047
      9 PA         -3.2890    2.7005    2.6567 P.3       1 ATP         1.5908
     10 O1A        -3.9939    3.6421    3.6090 O.co2     1 ATP        -0.8932
     11 O2A        -3.8602    2.4175    1.2844 O.co2     1 ATP        -0.8932
     12 O3A        -3.0427    1.2741    3.4147 O.3       1 ATP        -0.8088
     13 O5'        -1.7336    3.1724    2.4750 O.3       1 ATP        -0.5646
     14 C5'        -0.8811    2.4285    1.6206 C.3       1 ATP         0.2204
     15 C4'        -0.1994    1.3333    2.4288 C.3       1 ATP         0.0965
     16 O4'        -1.1285    0.2356    2.5840 O.3       1 ATP        -0.3907
     17 C3'         1.0324    0.7610    1.7344 C.3       1 ATP         0.0763
     18 O3'         1.9175    0.2377    2.7247 O.3       1 ATP        -0.5884
     19 C2'         0.4468   -0.3802    0.9263 C.3       1 ATP         0.0784
     20 O2'         1.3993   -1.3703    0.5961 O.3       1 ATP        -0.6085
     21 C1'        -0.6159   -0.9100    1.8769 C.3       1 ATP         0.2186
     22 N9         -1.7127   -1.6108    1.2130 N.pl3     1 ATP        -0.1699
     23 C8         -2.8662   -1.0361    0.7388 C.ar      1 ATP         0.4438
     24 N7         -3.6774   -1.9166    0.1867 N.2       1 ATP        -0.6280
     25 C5         -3.0159   -3.1045    0.3122 C.ar      1 ATP         0.2109
     26 C6         -3.4377   -4.4169   -0.1199 C.ar      1 ATP         0.6180
     27 N6         -4.5720   -4.5691   -0.7080 N.2       1 ATP        -0.8319
     28 N1         -2.4600   -5.3463    0.2071 N.pl3     1 ATP        -0.8664
     29 C2         -1.2595   -5.0554    0.8515 C.ar      1 ATP         0.5952
     30 N3         -0.8555   -3.8803    1.2516 N.2       1 ATP        -0.5599
     31 C4         -1.7946   -2.9457    0.9448 C.ar      1 ATP         0.0076
     32 HOG3       -5.1272   -1.4131    6.3697 H         1 ATP         0.4101
     33 H5'1       -1.4800    1.9927    0.8146 H         1 ATP         0.0364
     34 H5'2       -0.1367    3.1040    1.1872 H         1 ATP         0.0364
     35 H4'         0.0403    1.7078    3.4343 H         1 ATP         0.0945
     36 H3'         1.5907    1.4859    1.1353 H         1 ATP         0.0703
     37 HO3'        2.6839   -0.1150    2.2479 H         1 ATP         0.4099
     38 H2'        -0.0017    0.0018    0.0005 H         1 ATP         0.0676
     39 HO2'        1.7495   -1.7243    1.4324 H         1 ATP         0.4291
     40 H1'        -0.1998   -1.6319    2.6178 H         1 ATP         0.0950
     41 H8         -3.0558    0.0252    0.8256 H         1 ATP         0.1135
     42 HN62       -4.7047   -5.5592   -0.9421 H         1 ATP         0.3588
     43 H2         -0.6372   -5.9505    1.0077 H         1 ATP         0.0302
     44 H44        -2.6338   -6.3155   -0.0469 H         1 ATP         0.4215
@<TRIPOS>BOND
     1    1    2 2
     2    1    3 1
     3    1    4 1
     4    1    8 1
     5    4   32 1
     6    5    6 2
     7    5    7 1
     8    5    8 1
     9    5   12 1
    10    9   10 2
    11    9   11 1
    12    9   12 1
    13    9   13 1
    14   13   14 1
    15   14   15 1
    16   14   33 1
    17   14   34 1
    18   15   16 1
    19   15   17 1
    20   15   35 1
    21   16   21 1
    22   17   18 1
    23   17   19 1
    24   17   36 1
    25   18   37 1
    26   19   20 1
    27   19   21 1
    28   19   38 1
    29   20   39 1
    30   21   22 1
    31   21   40 1
    32   22   23 ar
    33   22   31 ar
    34   23   24 ar
    35   23   41 1
    36   24   25 ar
    37   25   26 ar
    38   25   31 ar
    39   26   27 2
    40   26   28 ar
    41   27   42 1
    42   28   29 ar
    43   28   44 1
    44   29   30 ar
    45   29   43 1
    46   30   31 ar
@<TRIPOS>SUBSTRUCTURE
     1 ATP         1 GROUP 0 A     ****
@<TRIPOS>MOLECULE
[[[3,4-dihydroxy-5-(6-imino-1~{H}-purin-9-yl)tetrahydrofuran-2-yl]methoxy-oxido-phosphoryl]oxy-oxido-phosphoryl] hydrogen phosphate
   44    46     1     0     0
SMALL
USER_CHARGES

@<TRIPOS>ATOM
      1 PG          2.7586    8.4155   -2.3760 P.3       1 ATP         1.5257
      2 O1G         1.3247    8.8203   -2.1163 O.co2     1 ATP        -0.8737
      3 O2G         3.3392    8.4635   -3.7718 O.co2     1 ATP        -0.8737
      4 O3G         3.7281    9.2737   -1.3813 O.3       1 ATP        -0.7971
      5 PB          2.3936    5.4869   -2.1917 P.3       1 ATP         1.6824
      6 O1B         0.9089    5.4872   -1.9033 O.co2     1 ATP        -0.8925
      7 O2B         2.9252    5.1317   -3.5624 O.co2     1 ATP        -0.8925
      8 O3B         3.0133    6.9307   -1.7479 O.3       1 ATP        -0.8047
      9 PA          4.7368    4.3145   -0.8169 P.3       1 ATP         1.5908
     10 O1A         5.3515    5.6144   -0.3450 O.co2     1 ATP        -0.8932
     11 O2A         5.3105    3.5740   -2.0052 O.co2     1 ATP        -0.8932
     12 O3A         3.1422    4.5531   -1.0815 O.3       1 ATP        -0.8088
     13 O5'         4.6405    3.2699    0.4378 O.3       1 ATP        -0.5646
     14 C5'         4.0922    1.9801    0.2227 C.3       1 ATP         0.2204
     15 C4'         2.5944    2.0310    0.4653 C.3       1 ATP         0.0965
     16 O4'         1.9327    2.5740   -0.6889 O.3       1 ATP        -0.3907
     17 C3'         1.9685    0.6634    0.6767 C.3       1 ATP         0.0763
     18 O3'         2.1425    0.1975    1.9977 O.3       1 ATP        -0.5884
     19 C2'         0.5176    0.9128    0.3099 C.3       1 ATP         0.0784
     20 O2'        -0.2103    1.4454    1.4152 O.3       1 ATP        -0.6085
     21 C1'         0.6219    1.9765   -0.7844 C.3       1 ATP         0.2186
     22 N9          0.4237    1.4496   -2.1357 N.pl3     1 ATP        -0.1699
     23 C8          1.4069    0.9710   -2.9662 C.ar      1 ATP         0.4438
     24 N7          0.9316    0.5623   -4.1260 N.2       1 ATP        -0.6280
     25 C5         -0.4120    0.7884   -4.0344 C.ar      1 ATP         0.2109
     26 C6         -1.4353    0.5283   -5.0204 C.ar      1 ATP         0.6180
     27 N6         -1.1199    0.0176   -6.1586 N.2       1 ATP        -0.8319
     28 N1         -2.6704    0.9095   -4.5147 N.pl3     1 ATP        -0.8664
     29 C2         -2.8863    1.4571   -3.2520 C.ar      1 ATP         0.5952
     30 N3         -1.9805    1.7017   -2.3442 N.2       1 ATP        -0.5599
     31 C4         -0.7561    1.3381   -2.8112 C.ar      1 ATP         0.0076
     32 HOG3        4.6963    9.1237   -1.4292 H         1 ATP         0.4101
     33 H5'1        4.3028    1.6728   -0.8066 H         1 ATP         0.0364
     34 H5'2        4.5677    1.2738    0.9106 H         1 ATP         0.0364
     35 H4'         2.3752    2.7029    1.3156 H         1 ATP         0.0945
     36 H3'         2.4336   -0.1217   -0.0015 H         1 ATP         0.0703
     37 HO3'        1.7160   -0.6716    2.0397 H         1 ATP         0.4099
     38 H2'         0.0316    0.0155   -0.0339 H         1 ATP         0.0676
     39 HO2'       -1.1270    1.5823    1.1180 H         1 ATP         0.4291
     40 H1'        -0.1474    2.7798   -0.6651 H         1 ATP         0.0950
     41 H8          2.4466    0.9468   -2.6694 H         1 ATP         0.1135
     42 HN62       -1.9661   -0.0965   -6.7275 H         1 ATP         0.3588
     43 H2         -3.9481    1.6825   -3.0660 H         1 ATP         0.0302
     44 H44        -3.4814    0.7753   -5.1133 H         1 ATP         0.4215
@<TRIPOS>BOND
     1    1    2 2
     2    1    3 1
     3    1    4 1
     4    1    8 1
     5    4   32 1
     6    5    6 2
     7    5    7 1
     8    5    8 1
     9    5   12 1
    10    9   10 2
    11    9   11 1
    12    9   12 1
    13    9   13 1
    14   13   14 1
    15   14   15 1
    16   14   33 1
    17   14   34 1
    18   15   16 1
    19   15   17 1
    20   15   35 1
    21   16   21 1
    22   17   18 1
    23   17   19 1
    24   17   36 1
    25   18   37 1
    26   19   20 1
    27   19   21 1
    28   19   38 1
    29   20   39 1
    30   21   22 1
    31   21   40 1
    32   22   23 ar
    33   22   31 ar
    34   23   24 ar
    35   23   41 1
    36   24   25 ar
    37   25   26 ar
    38   25   31 ar
    39   26   27 2
    40   26   28 ar
    41   27   42 1
    42   28   29 ar
    43   28   44 1
    44   29   30 ar
    45   29   43 1
    46   30   31 ar
@<TRIPOS>SUBSTRUCTURE
     1 ATP         1 GROUP 0 A     ****
@<TRIPOS>MOLECULE
[[[3,4-dihydroxy-5-(6-imino-1~{H}-purin-9-yl)tetrahydrofuran-2-yl]methoxy-oxido-phosphoryl]oxy-oxido-phosphoryl] hydrogen phosphate
   44    46     1     0     0
SMALL
USER_CHARGES

@<TRIPOS>ATOM
      1 PG         -6.0462   -1.2152    2.1807 P.3       1 ATP         1.5257
      2 O1G        -5.6935   -2.5793    2.7306 O.co2     1 ATP        -0.8737
      3 O2G        -6.4511   -1.0414    0.7338 O.co2     1 ATP        -0.8737
      4 O3G        -7.2046   -0.5587    3.1257 O.3       1 ATP        -0.7971
      5 PB         -4.1224    0.1715    3.9470 P.3       1 ATP         1.6824
      6 O1B        -5.1302    0.8686    4.8336 O.co2     1 ATP        -0.8925
      7 O2B        -3.3717   -1.0512    4.4253 O.co2     1 ATP        -0.8925
      8 O3B        -4.8337   -0.1764    2.5192 O.3       1 ATP        -0.8047
      9 PA         -3.2890    2.7005    2.6567 P.3       1 ATP         1.5908
     10 O1A        -3.9939    3.6421    3.6090 O.co2     1 ATP        -0.8932
     11 O2A        -3.8602    2.4175    1.2844 O.co2     1 ATP        -0.8932
     12 O3A        -3.0427    1.2741    3.4147 O.3       1 ATP        -0.8088
     13 O5'        -1.7336    3.1724    2.4750 O.3       1 ATP        -0.5646
     14 C5'        -0.8811    2.4285    1.6206 C.3       1 ATP         0.2204
     15 C4'        -0.1994    1.3333    2.4288 C.3       1 ATP         0.0965
     16 O4'        -1.1285    0.2356    2.5840 O.3       1 ATP        -0.3907
     17 C3'         1.0324    0.7610    1.7344 C.3       1 ATP         0.0763
     18 O3'         1.9175    0.2377    2.7247 O.3       1 ATP        -0.5884
     19 C2'         0.4468   -0.3802    0.9263 C.3       1 ATP         0.0784
     20 O2'         1.3993   -1.3703    0.5961 O.3       1 ATP        -0.6085
     21 C1'        -0.6159   -0.9100    1.8769 C.3       1 ATP         0.2186
     22 N9         -1.7127   -1.6108    1.2130 N.pl3     1 ATP        -0.1699
     23 C8         -2.0868   -2.9137    1.4327 C.ar      1 ATP         0.4438
     24 N7         -3.1125   -3.2756    0.6878 N.2       1 ATP        -0.6280
     25 C5         -3.4079   -2.1580   -0.0391 C.ar      1 ATP         0.2109
     26 C6         -4.4483   -1.9775   -1.0249 C.ar      1 ATP         0.6180
     27 N6         -5.2418   -2.9492   -1.3113 N.2       1 ATP        -0.8319
     28 N1         -4.3937   -0.6823   -1.5211 N.pl3     1 ATP        -0.8664
     29 C2         -3.4770    0.2901   -1.1271 C.ar      1 ATP         0.5952
     30 N3         -2.5289    0.1525   -0.2402 N.2       1 ATP        -0.5599
     31 C4         -2.5564   -1.1096    0.2655 C.ar      1 ATP         0.0076
     32 HOG3       -7.5429    0.3334    2.8979 H         1 ATP         0.4101
     33 H5'1       -1.4800    1.9927    0.8146 H         1 ATP         0.0364
     34 H5'2       -0.1367    3.1040    1.1872 H         1 ATP         0.0364
     35 H4'         0.0403    1.7078    3.4343 H         1 ATP         0.0945
     36 H3'         1.5907    1.4859    1.1353 H         1 ATP         0.0703
     37 HO3'        2.1521    0.9800    3.3017 H         1 ATP         0.4099
     38 H2'        -0.0017    0.0018    0.0005 H         1 ATP         0.0676
     39 HO2'        0.9369   -2.0558    0.0825 H         1 ATP         0.4291
     40 H1'        -0.1998   -1.6319    2.6178 H         1 ATP         0.0950
     41 H8         -1.5740   -3.5449    2.1457 H         1 ATP         0.1135
     42 HN62       -5.9117   -2.6433   -2.0256 H         1 ATP         0.3588
     43 H2         -3.6225    1.2454   -1.6553 H         1 ATP         0.0302
     44 H44        -5.0794   -0.4231   -2.2258 H         1 ATP         0.4215
@<TRIPOS>BOND
     1    1    2 2
     2    1    3 1
     3    1    4 1
     4    1    8 1
     5    4   32 1
     6    5    6 2
     7    5    7 1
     8    5    8 1
     9    5   12 1
    10    9   10 2
    11    9   11 1
    12    9   12 1
    13    9   13 1
    14   13   14 1
    15   14   15 1
    16   14   33 1
    17   14   34 1
    18   15   16 1
    19   15   17 1
    20   15   35 1
    21   16   21 1
    22   17   18 1
    23   17   19 1
    24   17   36 1
    25   18   37 1
    26   19   20 1
    27   19   21 1
    28   19   38 1
    29   20   39 1
    30   21   22 1
    31   21   40 1
    32   22   23 ar
    33   22   31 ar
    34   23   24 ar
    35   23   41 1
    36   24   25 ar
    37   25   26 ar
    38   25   31 ar
    39   26   27 2
    40   26   28 ar
    41   27   42 1
    42   28   29 ar
    43   28   44 1
    44   29   30 ar
    45   29   43 1
    46   30   31 ar
@<TRIPOS>SUBSTRUCTURE
     1 ATP         1 GROUP 0 A     ****
@<TRIPOS>MOLECULE
[[[3,4-dihydroxy-5-(6-imino-1~{H}-purin-9-yl)tetrahydrofuran-2-yl]methoxy-oxido-phosphoryl]oxy-oxido-phosphoryl] hydrogen phosphate
   44    46     1     0     0
SMALL
USER_CHARGES

@<TRIPOS>ATOM
      1 PG         -6.4084    2.3383   -1.8250 P.3       1 ATP         1.5257
      2 O1G        -7.7062    2.9678   -1.3703 O.co2     1 ATP        -0.8737
      3 O2G        -6.3378    0.8683   -2.1738 O.co2     1 ATP        -0.8737
      4 O3G        -5.8284    3.1987   -3.0857 O.3       1 ATP        -0.7971
      5 PB         -4.7646    4.1198   -0.1315 P.3       1 ATP         1.6824
      6 O1B        -4.1320    4.9266   -1.2434 O.co2     1 ATP        -0.8925
      7 O2B        -5.8860    4.6887    0.7089 O.co2     1 ATP        -0.8925
      8 O3B        -5.2419    2.6801   -0.7358 O.3       1 ATP        -0.8047
      9 PA         -2.5926    4.4187    1.8556 P.3       1 ATP         1.5908
     10 O1A        -3.4218    5.0536    2.9508 O.co2     1 ATP        -0.8932
     11 O2A        -1.6631    5.2564    1.0048 O.co2     1 ATP        -0.8932
     12 O3A        -3.5855    3.5838    0.8621 O.3       1 ATP        -0.8088
     13 O5'        -1.7336    3.1724    2.4750 O.3       1 ATP        -0.5646
     14 C5'        -0.8811    2.4285    1.6206 C.3       1 ATP         0.2204
     15 C4'        -0.1994    1.3333    2.4288 C.3       1 ATP         0.0965
     16 O4'        -1.1285    0.2356    2.5840 O.3       1 ATP        -0.3907
     17 C3'         1.0324    0.7610    1.7344 C.3       1 ATP         0.0763
     18 O3'         1.9175    0.2377    2.7247 O.3       1 ATP        -0.5884
     19 C2'         0.4468   -0.3802    0.9263 C.3       1 ATP         0.0784
     20 O2'         1.3993   -1.3703    0.5961 O.3       1 ATP        -0.6085
     21 C1'        -0.6159   -0.9100    1.8769 C.3       1 ATP         0.2186
     22 N9         -1.7127   -1.6108    1.2130 N.pl3     1 ATP        -0.1699
     23 C8         -2.0868   -2.9137    1.4327 C.ar      1 ATP         0.4438
     24 N7         -3.1125   -3.2756    0.6878 N.2       1 ATP        -0.6280
     25 C5         -3.4079   -2.1580   -0.0391 C.ar      1 ATP         0.2109
     26 C6         -4.4483   -1.9775   -1.0249 C.ar      1 ATP         0.6180
     27 N6         -5.2418   -2.9492   -1.3113 N.2       1 ATP        -0.8319
     28 N1         -4.3937   -0.6823   -1.5211 N.pl3     1 ATP        -0.8664
     29 C2         -3.4770    0.2901   -1.1271 C.ar      1 ATP         0.5952
     30 N3         -2.5289    0.1525   -0.2402 N.2       1 ATP        -0.5599
     31 C4         -2.5564   -1.1096    0.2655 C.ar      1 ATP         0.0076
     32 HOG3       -4.9845    2.9138   -3.4966 H         1 ATP         0.4101
     33 H5'1       -1.4800    1.9927    0.8146 H         1 ATP         0.0364
     34 H5'2       -0.1367    3.1040    1.1872 H         1 ATP         0.0364
     35 H4'         0.0403    1.7078    3.4343 H         1 ATP         0.0945
     36 H3'         1.5907    1.4859    1.1353 H         1 ATP         0.0703
     37 HO3'        2.6839   -0.1150    2.2479 H         1 ATP         0.4099
     38 H2'        -0.0017    0.0018    0.0005 H         1 ATP         0.0676
     39 HO2'        2.0953   -0.9375    0.0709 H         1 ATP         0.4291
     40 H1'        -0.1998   -1.6319    2.6178 H         1 ATP         0.0950
     41 H8         -1.5740   -3.5449    2.1457 H         1 ATP         0.1135
     42 HN62       -5.9117   -2.6433   -2.0256 H         1 ATP         0.3588
     43 H2         -3.6225    1.2454   -1.6553 H         1 ATP         0.0302
     44 H44        -5.0794   -0.4231   -2.2258 H         1 ATP         0.4215
@<TRIPOS>BOND
     1    1    2 2
     2    1    3 1
     3    1    4 1
     4    1    8 1
     5    4   32 1
     6    5    6 2
     7    5    7 1
     8    5    8 1
     9    5   12 1
    10    9   10 2
    11    9   11 1
    12    9   12 1
    13    9   13 1
    14   13   14 1
    15   14   15 1
    16   14   33 1
    17   14   34 1
    18   15   16 1
    19   15   17 1
    20   15   35 1
    21   16   21 1
    22   17   18 1
    23   17   19 1
    24   17   36 1
    25   18   37 1
    26   19   20 1
    27   19   21 1
    28   19   38 1
    29   20   39 1
    30   21   22 1
    31   21   40 1
    32   22   23 ar
    33   22   31 ar
    34   23   24 ar
    35   23   41 1
    36   24   25 ar
    37   25   26 ar
    38   25   31 ar
    39   26   27 2
    40   26   28 ar
    41   27   42 1
    42   28   29 ar
    43   28   44 1
    44   29   30 ar
    45   29   43 1
    46   30   31 ar
@<TRIPOS>SUBSTRUCTURE
     1 ATP         1 GROUP 0 A     ****
@<TRIPOS>MOLECULE
[[[3,4-dihydroxy-5-(6-imino-1~{H}-purin-9-yl)tetrahydrofuran-2-yl]methoxy-oxido-phosphoryl]oxy-oxido-phosphoryl] hydrogen phosphate
   44    46     1     0     0
SMALL
USER_CHARGES

@<TRIPOS>ATOM
      1 PG         -5.6671    2.2695   -2.5001 P.3       1 ATP         1.5257
      2 O1G        -6.7530    3.3221   -2.5226 O.co2     1 ATP        -0.8737
      3 O2G        -6.0028    0.8030   -2.6559 O.co2     1 ATP        -0.8737
      4 O3G        -4.5390    2.6642   -3.6126 O.3       1 ATP        -0.7971
      5 PB         -5.1692    2.2616    0.4146 P.3       1 ATP         1.6824
      6 O1B        -6.1848    3.3160    0.7947 O.co2     1 ATP        -0.8925
      7 O2B        -5.4355    0.7931    0.6598 O.co2     1 ATP        -0.8925
      8 O3B        -4.7652    2.4656   -1.1540 O.3       1 ATP        -0.8047
      9 PA         -3.2890    2.7005    2.6567 P.3       1 ATP         1.5908
     10 O1A        -3.3276    1.2949    3.2163 O.co2     1 ATP        -0.8932
     11 O2A        -4.0474    3.8228    3.3313 O.co2     1 ATP        -0.8932
     12 O3A        -3.7331    2.6526    1.0850 O.3       1 ATP        -0.8088
     13 O5'        -1.7336    3.1724    2.4750 O.3       1 ATP        -0.5646
     14 C5'        -0.8811    2.4285    1.6206 C.3       1 ATP         0.2204
     15 C4'        -0.1994    1.3333    2.4288 C.3       1 ATP         0.0965
     16 O4'        -1.1285    0.2356    2.5840 O.3       1 ATP        -0.3907
     17 C3'         1.0324    0.7610    1.7344 C.3       1 ATP         0.0763
     18 O3'         1.9175    0.2377    2.7247 O.3       1 ATP        -0.5884
     19 C2'         0.4468   -0.3802    0.9263 C.3       1 ATP         0.0784
     20 O2'         1.3993   -1.3703    0.5961 O.3       1 ATP        -0.6085
     21 C1'        -0.6159   -0.9100    1.8769 C.3       1 ATP         0.2186
     22 N9         -1.7127   -1.6108    1.2130 N.pl3     1 ATP        -0.1699
     23 C8         -3.0370   -1.2489    1.2455 C.ar      1 ATP         0.4438
     24 N7         -3.8008   -2.0709    0.5534 N.2       1 ATP        -0.6280
     25 C5         -2.9295   -2.9976    0.0567 C.ar      1 ATP         0.2109
     26 C6         -3.2152   -4.1411   -0.7786 C.ar      1 ATP         0.6180
     27 N6         -4.4238   -4.3865   -1.1456 N.2       1 ATP        -0.8319
     28 N1         -2.0349   -4.8186   -1.0521 N.pl3     1 ATP        -0.8664
     29 C2         -0.7728   -4.4501   -0.5916 C.ar      1 ATP         0.5952
     30 N3         -0.4885   -3.4234    0.1630 N.2       1 ATP        -0.5599
     31 C4         -1.6274   -2.7377    0.4492 C.ar      1 ATP         0.0076
     32 HOG3       -3.7629    2.0741   -3.7202 H         1 ATP         0.4101
     33 H5'1       -1.4800    1.9927    0.8146 H         1 ATP         0.0364
     34 H5'2       -0.1367    3.1040    1.1872 H         1 ATP         0.0364
     35 H4'         0.0403    1.7078    3.4343 H         1 ATP         0.0945
     36 H3'         1.5907    1.4859    1.1353 H         1 ATP         0.0703
     37 HO3'        2.6839   -0.1150    2.2479 H         1 ATP         0.4099
     38 H2'        -0.0017    0.0018    0.0005 H         1 ATP         0.0676
     39 HO2'        2.0953   -0.9375    0.0709 H         1 ATP         0.4291
     40 H1'        -0.1998   -1.6319    2.6178 H         1 ATP         0.0950
     41 H8         -3.3806   -0.3795    1.7893 H         1 ATP         0.1135
     42 HN62       -4.4384   -5.2300   -1.7295 H         1 ATP         0.3588
     43 H2          0.0180   -5.1355   -0.9348 H         1 ATP         0.0302
     44 H44        -2.0977   -5.6477   -1.6374 H         1 ATP         0.4215
@<TRIPOS>BOND
     1    1    2 2
     2    1    3 1
     3    1    4 1
     4    1    8 1
     5    4   32 1
     6    5    6 2
     7    5    7 1
     8    5    8 1
     9    5   12 1
    10    9   10 2
    11    9   11 1
    12    9   12 1
    13    9   13 1
    14   13   14 1
    15   14   15 1
    16   14   33 1
    17   14   34 1
    18   15   16 1
    19   15   17 1
    20   15   35 1
    21   16   21 1
    22   17   18 1
    23   17   19 1
    24   17   36 1
    25   18   37 1
    26   19   20 1
    27   19   21 1
    28   19   38 1
    29   20   39 1
    30   21   22 1
    31   21   40 1
    32   22   23 ar
    33   22   31 ar
    34   23   24 ar
    35   23   41 1
    36   24   25 ar
    37   25   26 ar
    38   25   31 ar
    39   26   27 2
    40   26   28 ar
    41   27   42 1
    42   28   29 ar
    43   28   44 1
    44   29   30 ar
    45   29   43 1
    46   30   31 ar
@<TRIPOS>SUBSTRUCTURE
     1 ATP         1 GROUP 0 A     ****
@<TRIPOS>MOLECULE
[[[3,4-dihydroxy-5-(6-imino-1~{H}-purin-9-yl)tetrahydrofuran-2-yl]methoxy-oxido-phosphoryl]oxy-oxido-phosphoryl] hydrogen phosphate
   44    46     1     0     0
SMALL
USER_CHARGES

@<TRIPOS>ATOM
      1 PG          1.0771    2.1091   -4.4433 P.3       1 ATP         1.5257
      2 O1G         2.0176    3.0966   -5.0974 O.co2     1 ATP        -0.8737
      3 O2G        -0.3492    1.9589   -4.9235 O.co2     1 ATP        -0.8737
      4 O3G         1.7840    0.6373   -4.4497 O.3       1 ATP        -0.7971
      5 PB          2.3126    2.4524   -1.7789 P.3       1 ATP         1.6824
      6 O1B         2.9501    1.0848   -1.6753 O.co2     1 ATP        -0.8925
      7 O2B         3.1379    3.6793   -2.0969 O.co2     1 ATP        -0.8925
      8 O3B         1.0680    2.3713   -2.8324 O.3       1 ATP        -0.8047
      9 PA          0.4528    3.9705   -0.0493 P.3       1 ATP         1.5908
     10 O1A        -0.7522    3.9072   -0.9627 O.co2     1 ATP        -0.8932
     11 O2A         1.2755    5.2358    0.0594 O.co2     1 ATP        -0.8932
     12 O3A         1.4568    2.7352   -0.4178 O.3       1 ATP        -0.8088
     13 O5'         0.0178    3.5131    1.4595 O.3       1 ATP        -0.5646
     14 C5'        -0.8811    2.4285    1.6206 C.3       1 ATP         0.2204
     15 C4'        -0.1994    1.3333    2.4288 C.3       1 ATP         0.0965
     16 O4'        -1.1285    0.2356    2.5840 O.3       1 ATP        -0.3907
     17 C3'         1.0324    0.7610    1.7344 C.3       1 ATP         0.0763
     18 O3'         1.9175    0.2377    2.7247 O.3       1 ATP        -0.5884
     19 C2'         0.4468   -0.3802    0.9263 C.3       1 ATP         0.0784
     20 O2'         1.3993   -1.3703    0.5961 O.3       1 ATP        -0.6085
     21 C1'        -0.6159   -0.9100    1.8769 C.3       1 ATP         0.2186
     22 N9         -1.7127   -1.6108    1.2130 N.pl3     1 ATP        -0.1699
     23 C8         -1.7690   -2.9583    0.9549 C.ar      1 ATP         0.4438
     24 N7         -2.8827   -3.3076    0.3418 N.2       1 ATP        -0.6280
     25 C5         -3.5683   -2.1351    0.2017 C.ar      1 ATP         0.2109
     26 C6         -4.8617   -1.9185   -0.4044 C.ar      1 ATP         0.6180
     27 N6         -5.5166   -2.9094   -0.8993 N.2       1 ATP        -0.8319
     28 N1         -5.1837   -0.5701   -0.3344 N.pl3     1 ATP        -0.8664
     29 C2         -4.3821    0.4180    0.2330 C.ar      1 ATP         0.5952
     30 N3         -3.2117    0.2488    0.7860 N.2       1 ATP        -0.5599
     31 C4         -2.8672   -1.0657    0.7327 C.ar      1 ATP         0.0076
     32 HOG3        2.6408    0.5288   -3.9845 H         1 ATP         0.4101
     33 H5'1       -1.7771    2.7849    2.1387 H         1 ATP         0.0364
     34 H5'2       -1.1654    2.0541    0.6320 H         1 ATP         0.0364
     35 H4'         0.0403    1.7078    3.4343 H         1 ATP         0.0945
     36 H3'         1.5907    1.4859    1.1353 H         1 ATP         0.0703
     37 HO3'        2.6839   -0.1150    2.2479 H         1 ATP         0.4099
     38 H2'        -0.0017    0.0018    0.0005 H         1 ATP         0.0676
     39 HO2'        2.0953   -0.9375    0.0709 H         1 ATP         0.4291
     40 H1'        -0.1998   -1.6319    2.6178 H         1 ATP         0.0950
     41 H8         -0.9697   -3.6300    1.2371 H         1 ATP         0.1135
     42 HN62       -6.4060   -2.5723   -1.2840 H         1 ATP         0.3588
     43 H2         -4.8409    1.4176    0.1757 H         1 ATP         0.0302
     44 H44        -6.0768   -0.2826   -0.7263 H         1 ATP         0.4215
@<TRIPOS>BOND
     1    1    2 2
     2    1    3 1
     3    1    4 1
     4    1    8 1
     5    4   32 1
     6    5    6 2
     7    5    7 1
     8    5    8 1
     9    5   12 1
    10    9   10 2
    11    9   11 1
    12    9   12 1
    13    9   13 1
    14   13   14 1
    15   14   15 1
    16   14   33 1
    17   14   34 1
    18   15   16 1
    19   15   17 1
    20   15   35 1
    21   16   21 1
    22   17   18 1
    23   17   19 1
    24   17   36 1
    25   18   37 1
    26   19   20 1
    27   19   21 1
    28   19   38 1
    29   20   39 1
    30   21   22 1
    31   21   40 1
    32   22   23 ar
    33   22   31 ar
    34   23   24 ar
    35   23   41 1
    36   24   25 ar
    37   25   26 ar
    38   25   31 ar
    39   26   27 2
    40   26   28 ar
    41   27   42 1
    42   28   29 ar
    43   28   44 1
    44   29   30 ar
    45   29   43 1
    46   30   31 ar
@<TRIPOS>SUBSTRUCTURE
     1 ATP         1 GROUP 0 A     ****
@<TRIPOS>MOLECULE
[[[3,4-dihydroxy-5-(6-imino-1~{H}-purin-9-yl)tetrahydrofuran-2-yl]methoxy-oxido-phosphoryl]oxy-oxido-phosphoryl] hydrogen phosphate
   44    46     1     0     0
SMALL
USER_CHARGES

@<TRIPOS>ATOM
      1 PG          4.0628    0.0978   -2.1478 P.3       1 ATP         1.5257
      2 O1G         5.3690    0.8369   -2.3346 O.co2     1 ATP        -0.8737
      3 O2G         3.3401   -0.5136   -3.3275 O.co2     1 ATP        -0.8737
      4 O3G         4.2788   -1.0590   -1.0159 O.3       1 ATP        -0.7971
      5 PB          2.3126    2.4524   -1.7789 P.3       1 ATP         1.6824
      6 O1B         3.3782    3.5175   -1.9116 O.co2     1 ATP        -0.8925
      7 O2B         1.3480    2.1643   -2.9076 O.co2     1 ATP        -0.8925
      8 O3B         3.0241    1.0536   -1.3285 O.3       1 ATP        -0.8047
      9 PA          0.4528    3.9705   -0.0493 P.3       1 ATP         1.5908
     10 O1A        -0.7522    3.9072   -0.9627 O.co2     1 ATP        -0.8932
     11 O2A         1.2755    5.2358    0.0594 O.co2     1 ATP        -0.8932
     12 O3A         1.4568    2.7352   -0.4178 O.3       1 ATP        -0.8088
     13 O5'         0.0178    3.5131    1.4595 O.3       1 ATP        -0.5646
     14 C5'        -0.8811    2.4285    1.6206 C.3       1 ATP         0.2204
     15 C4'        -0.1994    1.3333    2.4288 C.3       1 ATP         0.0965
     16 O4'        -1.1285    0.2356    2.5840 O.3       1 ATP        -0.3907
     17 C3'         1.0324    0.7610    1.7344 C.3       1 ATP         0.0763
     18 O3'         1.9175    0.2377    2.7247 O.3       1 ATP        -0.5884
     19 C2'         0.4468   -0.3802    0.9263 C.3       1 ATP         0.0784
     20 O2'         1.3993   -1.3703    0.5961 O.3       1 ATP        -0.6085
     21 C1'        -0.6159   -0.9100    1.8769 C.3       1 ATP         0.2186
     22 N9         -1.7127   -1.6108    1.2130 N.pl3     1 ATP        -0.1699
     23 C8         -3.0370   -1.2489    1.2455 C.ar      1 ATP         0.4438
     24 N7         -3.8008   -2.0709    0.5534 N.2       1 ATP        -0.6280
     25 C5         -2.9295   -2.9976    0.0567 C.ar      1 ATP         0.2109
     26 C6         -3.2152   -4.1411   -0.7786 C.ar      1 ATP         0.6180
     27 N6         -4.4238   -4.3865   -1.1456 N.2       1 ATP        -0.8319
     28 N1         -2.0349   -4.8186   -1.0521 N.pl3     1 ATP        -0.8664
     29 C2         -0.7728   -4.4501   -0.5916 C.ar      1 ATP         0.5952
     30 N3         -0.4885   -3.4234    0.1630 N.2       1 ATP        -0.5599
     31 C4         -1.6274   -2.7377    0.4492 C.ar      1 ATP         0.0076
     32 HOG3        3.5165   -1.6297   -0.7802 H         1 ATP         0.4101
     33 H5'1       -1.7771    2.7849    2.1387 H         1 ATP         0.0364
     34 H5'2       -1.1654    2.0541    0.6320 H         1 ATP         0.0364
     35 H4'         0.0403    1.7078    3.4343 H         1 ATP         0.0945
     36 H3'         1.5907    1.4859    1.1353 H         1 ATP         0.0703
     37 HO3'        2.6839   -0.1150    2.2479 H         1 ATP         0.4099
     38 H2'        -0.0017    0.0018    0.0005 H         1 ATP         0.0676
     39 HO2'        2.0953   -0.9375    0.0709 H         1 ATP         0.4291
     40 H1'        -0.1998   -1.6319    2.6178 H         1 ATP         0.0950
     41 H8         -3.3806   -0.3795    1.7893 H         1 ATP         0.1135
     42 HN62       -4.4384   -5.2300   -1.7295 H         1 ATP         0.3588
     43 H2          0.0180   -5.1355   -0.9348 H         1 ATP         0.0302
     44 H44        -2.0977   -5.6477   -1.6374 H         1 ATP         0.4215
@<TRIPOS>BOND
     1    1    2 2
     2    1    3 1
     3    1    4 1
     4    1    8 1
     5    4   32 1
     6    5    6 2
     7    5    7 1
     8    5    8 1
     9    5   12 1
    10    9   10 2
    11    9   11 1
    12    9   12 1
    13    9   13 1
    14   13   14 1
    15   14   15 1
    16   14   33 1
    17   14   34 1
    18   15   16 1
    19   15   17 1
    20   15   35 1
    21   16   21 1
    22   17   18 1
    23   17   19 1
    24   17   36 1
    25   18   37 1
    26   19   20 1
    27   19   21 1
    28   19   38 1
    29   20   39 1
    30   21   22 1
    31   21   40 1
    32   22   23 ar
    33   22   31 ar
    34   23   24 ar
    35   23   41 1
    36   24   25 ar
    37   25   26 ar
    38   25   31 ar
    39   26   27 2
    40   26   28 ar
    41   27   42 1
    42   28   29 ar
    43   28   44 1
    44   29   30 ar
    45   29   43 1
    46   30   31 ar
@<TRIPOS>SUBSTRUCTURE
     1 ATP         1 GROUP 0 A     ****
@<TRIPOS>MOLECULE
[[[3,4-dihydroxy-5-(6-imino-1~{H}-purin-9-yl)tetrahydrofuran-2-yl]methoxy-oxido-phosphoryl]oxy-oxido-phosphoryl] hydrogen phosphate
   44    46     1     0     0
SMALL
USER_CHARGES

@<TRIPOS>ATOM
      1 PG          1.0771    2.1091   -4.4433 P.3       1 ATP         1.5257
      2 O1G        -0.3241    2.2974   -4.9806 O.co2     1 ATP        -0.8737
      3 O2G         1.8560    0.8446   -4.7297 O.co2     1 ATP        -0.8737
      4 O3G         1.9829    3.3897   -4.8965 O.3       1 ATP        -0.7971
      5 PB          2.3126    2.4524   -1.7789 P.3       1 ATP         1.6824
      6 O1B         2.9501    1.0848   -1.6753 O.co2     1 ATP        -0.8925
      7 O2B         3.1379    3.6793   -2.0969 O.co2     1 ATP        -0.8925
      8 O3B         1.0680    2.3713   -2.8324 O.3       1 ATP        -0.8047
      9 PA          0.4528    3.9705   -0.0493 P.3       1 ATP         1.5908
     10 O1A        -0.7522    3.9072   -0.9627 O.co2     1 ATP        -0.8932
     11 O2A         1.2755    5.2358    0.0594 O.co2     1 ATP        -0.8932
     12 O3A         1.4568    2.7352   -0.4178 O.3       1 ATP        -0.8088
     13 O5'         0.0178    3.5131    1.4595 O.3       1 ATP        -0.5646
     14 C5'        -0.8811    2.4285    1.6206 C.3       1 ATP         0.2204
     15 C4'        -0.1994    1.3333    2.4288 C.3       1 ATP         0.0965
     16 O4'        -1.1285    0.2356    2.5840 O.3       1 ATP        -0.3907
     17 C3'         1.0324    0.7610    1.7344 C.3       1 ATP         0.0763
     18 O3'         1.9175    0.2377    2.7247 O.3       1 ATP        -0.5884
     19 C2'         0.4468   -0.3802    0.9263 C.3       1 ATP         0.0784
     20 O2'         1.3993   -1.3703    0.5961 O.3       1 ATP        -0.6085
     21 C1'        -0.6159   -0.9100    1.8769 C.3       1 ATP         0.2186
     22 N9         -1.7127   -1.6108    1.2130 N.pl3     1 ATP        -0.1699
     23 C8         -3.0370   -1.2489    1.2455 C.ar      1 ATP         0.4438
     24 N7         -3.8008   -2.0709    0.5534 N.2       1 ATP        -0.6280
     25 C5         -2.9295   -2.9976    0.0567 C.ar      1 ATP         0.2109
     26 C6         -3.2152   -4.1411   -0.7786 C.ar      1 ATP         0.6180
     27 N6         -4.4238   -4.3865   -1.1456 N.2       1 ATP        -0.8319
     28 N1         -2.0349   -4.8186   -1.0521 N.pl3     1 ATP        -0.8664
     29 C2         -0.7728   -4.4501   -0.5916 C.ar      1 ATP         0.5952
     30 N3         -0.4885   -3.4234    0.1630 N.2       1 ATP        -0.5599
     31 C4         -1.6274   -2.7377    0.4492 C.ar      1 ATP         0.0076
     32 HOG3        2.9245    3.4160   -4.6227 H         1 ATP         0.4101
     33 H5'1       -1.7771    2.7849    2.1387 H         1 ATP         0.0364
     34 H5'2       -1.1654    2.0541    0.6320 H         1 ATP         0.0364
     35 H4'         0.0403    1.7078    3.4343 H         1 ATP         0.0945
     36 H3'         1.5907    1.4859    1.1353 H         1 ATP         0.0703
     37 HO3'        2.6839   -0.1150    2.2479 H         1 ATP         0.4099
     38 H2'        -0.0017    0.0018    0.0005 H         1 ATP         0.0676
     39 HO2'        2.0953   -0.9375    0.0709 H         1 ATP         0.4291
     40 H1'        -0.1998   -1.6319    2.6178 H         1 ATP         0.0950
     41 H8         -3.3806   -0.3795    1.7893 H         1 ATP         0.1135
     42 HN62       -4.4384   -5.2300   -1.7295 H         1 ATP         0.3588
     43 H2          0.0180   -5.1355   -0.9348 H         1 ATP         0.0302
     44 H44        -2.0977   -5.6477   -1.6374 H         1 ATP         0.4215
@<TRIPOS>BOND
     1    1    2 2
     2    1    3 1
     3    1    4 1
     4    1    8 1
     5    4   32 1
     6    5    6 2
     7    5    7 1
     8    5    8 1
     9    5   12 1
    10    9   10 2
    11    9   11 1
    12    9   12 1
    13    9   13 1
    14   13   14 1
    15   14   15 1
    16   14   33 1
    17   14   34 1
    18   15   16 1
    19   15   17 1
    20   15   35 1
    21   16   21 1
    22   17   18 1
    23   17   19 1
    24   17   36 1
    25   18   37 1
    26   19   20 1
    27   19   21 1
    28   19   38 1
    29   20   39 1
    30   21   22 1
    31   21   40 1
    32   22   23 ar
    33   22   31 ar
    34   23   24 ar
    35   23   41 1
    36   24   25 ar
    37   25   26 ar
    38   25   31 ar
    39   26   27 2
    40   26   28 ar
    41   27   42 1
    42   28   29 ar
    43   28   44 1
    44   29   30 ar
    45   29   43 1
    46   30   31 ar
@<TRIPOS>SUBSTRUCTURE
     1 ATP         1 GROUP 0 A     ****
@<TRIPOS>MOLECULE
[[[3,4-dihydroxy-5-(6-imino-1~{H}-purin-9-yl)tetrahydrofuran-2-yl]methoxy-oxido-phosphoryl]oxy-oxido-phosphoryl] hydrogen phosphate
   44    46     1     0     0
SMALL
USER_CHARGES

@<TRIPOS>ATOM
      1 PG         -7.2291    0.5736    2.2020 P.3       1 ATP         1.5257
      2 O1G        -8.0296    1.8308    2.4589 O.co2     1 ATP        -0.8737
      3 O2G        -7.0622   -0.4752    3.2789 O.co2     1 ATP        -0.8737
      4 O3G        -7.8152   -0.1494    0.8605 O.3       1 ATP        -0.7971
      5 PB         -5.3515    1.9494    0.3785 P.3       1 ATP         1.6824
      6 O1B        -5.7911    1.2804   -0.9047 O.co2     1 ATP        -0.8925
      7 O2B        -5.7612    3.3689    0.7021 O.co2     1 ATP        -0.8925
      8 O3B        -5.7560    0.9886    1.6349 O.3       1 ATP        -0.8047
      9 PA         -2.5569    2.5166   -0.4115 P.3       1 ATP         1.5908
     10 O1A        -2.6047    4.0168   -0.2187 O.co2     1 ATP        -0.8932
     11 O2A        -2.6189    1.9124   -1.7974 O.co2     1 ATP        -0.8932
     12 O3A        -3.7278    1.8323    0.5000 O.3       1 ATP        -0.8088
     13 O5'        -1.2434    1.9104    0.3515 O.3       1 ATP        -0.5646
     14 C5'        -0.8811    2.4285    1.6206 C.3       1 ATP         0.2204
     15 C4'        -0.1994    1.3333    2.4288 C.3       1 ATP         0.0965
     16 O4'        -1.1285    0.2356    2.5840 O.3       1 ATP        -0.3907
     17 C3'         1.0324    0.7610    1.7344 C.3       1 ATP         0.0763
     18 O3'         1.9175    0.2377    2.7247 O.3       1 ATP        -0.5884
     19 C2'         0.4468   -0.3802    0.9263 C.3       1 ATP         0.0784
     20 O2'         1.3993   -1.3703    0.5961 O.3       1 ATP        -0.6085
     21 C1'        -0.6159   -0.9100    1.8769 C.3       1 ATP         0.2186
     22 N9         -1.7127   -1.6108    1.2130 N.pl3     1 ATP        -0.1699
     23 C8         -2.8662   -1.0361    0.7388 C.ar      1 ATP         0.4438
     24 N7         -3.6774   -1.9166    0.1867 N.2       1 ATP        -0.6280
     25 C5         -3.0159   -3.1045    0.3122 C.ar      1 ATP         0.2109
     26 C6         -3.4377   -4.4169   -0.1199 C.ar      1 ATP         0.6180
     27 N6         -4.5720   -4.5691   -0.7080 N.2       1 ATP        -0.8319
     28 N1         -2.4600   -5.3463    0.2071 N.pl3     1 ATP        -0.8664
     29 C2         -1.2595   -5.0554    0.8515 C.ar      1 ATP         0.5952
     30 N3         -0.8555   -3.8803    1.2516 N.2       1 ATP        -0.5599
     31 C4         -1.7946   -2.9457    0.9448 C.ar      1 ATP         0.0076
     32 HOG3       -7.3974   -0.9845    0.5598 H         1 ATP         0.4101
     33 H5'1       -0.2033    3.2760    1.4769 H         1 ATP         0.0364
     34 H5'2       -1.7841    2.7762    2.1323 H         1 ATP         0.0364
     35 H4'         0.0403    1.7078    3.4343 H         1 ATP         0.0945
     36 H3'         1.5907    1.4859    1.1353 H         1 ATP         0.0703
     37 HO3'        2.6839   -0.1150    2.2479 H         1 ATP         0.4099
     38 H2'        -0.0017    0.0018    0.0005 H         1 ATP         0.0676
     39 HO2'        2.0953   -0.9375    0.0709 H         1 ATP         0.4291
     40 H1'        -0.1998   -1.6319    2.6178 H         1 ATP         0.0950
     41 H8         -3.0558    0.0252    0.8256 H         1 ATP         0.1135
     42 HN62       -4.7047   -5.5592   -0.9421 H         1 ATP         0.3588
     43 H2         -0.6372   -5.9505    1.0077 H         1 ATP         0.0302
     44 H44        -2.6338   -6.3155   -0.0469 H         1 ATP         0.4215
@<TRIPOS>BOND
     1    1    2 2
     2    1    3 1
     3    1    4 1
     4    1    8 1
     5    4   32 1
     6    5    6 2
     7    5    7 1
     8    5    8 1
     9    5   12 1
    10    9   10 2
    11    9   11 1
    12    9   12 1
    13    9   13 1
    14   13   14 1
    15   14   15 1
    16   14   33 1
    17   14   34 1
    18   15   16 1
    19   15   17 1
    20   15   35 1
    21   16   21 1
    22   17   18 1
    23   17   19 1
    24   17   36 1
    25   18   37 1
    26   19   20 1
    27   19   21 1
    28   19   38 1
    29   20   39 1
    30   21   22 1
    31   21   40 1
    32   22   23 ar
    33   22   31 ar
    34   23   24 ar
    35   23   41 1
    36   24   25 ar
    37   25   26 ar
    38   25   31 ar
    39   26   27 2
    40   26   28 ar
    41   27   42 1
    42   28   29 ar
    43   28   44 1
    44   29   30 ar
    45   29   43 1
    46   30   31 ar
@<TRIPOS>SUBSTRUCTURE
     1 ATP         1 GROUP 0 A     ****
@<TRIPOS>MOLECULE
[[[3,4-dihydroxy-5-(6-imino-1~{H}-purin-9-yl)tetrahydrofuran-2-yl]methoxy-oxido-phosphoryl]oxy-oxido-phosphoryl] hydrogen phosphate
   44    46     1     0     0
SMALL
USER_CHARGES

@<TRIPOS>ATOM
      1 PG         -3.9073    6.6918   -2.4710 P.3       1 ATP         1.5257
      2 O1G        -2.6795    7.5128   -2.7966 O.co2     1 ATP        -0.8737
      3 O2G        -5.2304    7.3589   -2.1677 O.co2     1 ATP        -0.8737
      4 O3G        -4.1369    5.6052   -3.6678 O.3       1 ATP        -0.7971
      5 PB         -4.4385    4.4456   -0.6228 P.3       1 ATP         1.6824
      6 O1B        -5.6345    5.0446    0.0829 O.co2     1 ATP        -0.8925
      7 O2B        -4.6055    3.3629   -1.6656 O.co2     1 ATP        -0.8925
      8 O3B        -3.5481    5.6554   -1.2624 O.3       1 ATP        -0.8047
      9 PA         -3.5002    2.7198    1.5899 P.3       1 ATP         1.5908
     10 O1A        -3.5694    1.4028    0.8475 O.co2     1 ATP        -0.8932
     11 O2A        -4.5647    3.0969    2.5970 O.co2     1 ATP        -0.8932
     12 O3A        -3.3718    3.9308    0.5005 O.3       1 ATP        -0.8088
     13 O5'        -2.0401    2.8620    2.3128 O.3       1 ATP        -0.5646
     14 C5'        -0.8811    2.4285    1.6206 C.3       1 ATP         0.2204
     15 C4'        -0.1994    1.3333    2.4288 C.3       1 ATP         0.0965
     16 O4'        -1.1285    0.2356    2.5840 O.3       1 ATP        -0.3907
     17 C3'         1.0324    0.7610    1.7344 C.3       1 ATP         0.0763
     18 O3'         1.9175    0.2377    2.7247 O.3       1 ATP        -0.5884
     19 C2'         0.4468   -0.3802    0.9263 C.3       1 ATP         0.0784
     20 O2'         1.3993   -1.3703    0.5961 O.3       1 ATP        -0.6085
     21 C1'        -0.6159   -0.9100    1.8769 C.3       1 ATP         0.2186
     22 N9         -1.7127   -1.6108    1.2130 N.pl3     1 ATP        -0.1699
     23 C8         -2.5485   -1.0808    0.2609 C.ar      1 ATP         0.4438
     24 N7         -3.4476   -1.9486   -0.1593 N.2       1 ATP        -0.6280
     25 C5         -3.1762   -3.0816    0.5530 C.ar      1 ATP         0.2109
     26 C6         -3.8510   -4.3579    0.5006 C.ar      1 ATP         0.6180
     27 N6         -4.8468   -4.5293   -0.2961 N.2       1 ATP        -0.8319
     28 N1         -3.2499   -5.2342    1.3937 N.pl3     1 ATP        -0.8664
     29 C2         -2.1646   -4.9275    2.2116 C.ar      1 ATP         0.5952
     30 N3         -1.5382   -3.7840    2.2778 N.2       1 ATP        -0.5599
     31 C4         -2.1054   -2.9018    1.4120 C.ar      1 ATP         0.0076
     32 HOG3       -4.9005    4.9929   -3.6023 H         1 ATP         0.4101
     33 H5'1       -1.1767    2.0502    0.6368 H         1 ATP         0.0364
     34 H5'2       -0.2080    3.2814    1.4876 H         1 ATP         0.0364
     35 H4'         0.0403    1.7078    3.4343 H         1 ATP         0.0945
     36 H3'         1.5907    1.4859    1.1353 H         1 ATP         0.0703
     37 HO3'        2.1521    0.9800    3.3017 H         1 ATP         0.4099
     38 H2'        -0.0017    0.0018    0.0005 H         1 ATP         0.0676
     39 HO2'        2.0953   -0.9375    0.0709 H         1 ATP         0.4291
     40 H1'        -0.1998   -1.6319    2.6178 H         1 ATP         0.0950
     41 H8         -2.4515   -0.0599   -0.0829 H         1 ATP         0.1135
     42 HN62       -5.1990   -5.4882   -0.2005 H         1 ATP         0.3588
     43 H2         -1.8555   -5.7783    2.8388 H         1 ATP         0.0302
     44 H44        -3.6312   -6.1750    1.4526 H         1 ATP         0.4215
@<TRIPOS>BOND
     1    1    2 2
     2    1    3 1
     3    1    4 1
     4    1    8 1
     5    4   32 1
     6    5    6 2
     7    5    7 1
     8    5    8 1
     9    5   12 1
    10    9   10 2
    11    9   11 1
    12    9   12 1
    13    9   13 1
    14   13   14 1
    15   14   15 1
    16   14   33 1
    17   14   34 1
    18   15   16 1
    19   15   17 1
    20   15   35 1
    21   16   21 1
    22   17   18 1
    23   17   19 1
    24   17   36 1
    25   18   37 1
    26   19   20 1
    27   19   21 1
    28   19   38 1
    29   20   39 1
    30   21   22 1
    31   21   40 1
    32   22   23 ar
    33   22   31 ar
    34   23   24 ar
    35   23   41 1
    36   24   25 ar
    37   25   26 ar
    38   25   31 ar
    39   26   27 2
    40   26   28 ar
    41   27   42 1
    42   28   29 ar
    43   28   44 1
    44   29   30 ar
    45   29   43 1
    46   30   31 ar
@<TRIPOS>SUBSTRUCTURE
     1 ATP         1 GROUP 0 A     ****
@<TRIPOS>MOLECULE
[[[3,4-dihydroxy-5-(6-imino-1~{H}-purin-9-yl)tetrahydrofuran-2-yl]methoxy-oxido-phosphoryl]oxy-oxido-phosphoryl] hydrogen phosphate
   44    46     1     0     0
SMALL
USER_CHARGES

@<TRIPOS>ATOM
      1 PG         -7.7574    4.3031    1.8649 P.3       1 ATP         1.5257
      2 O1G        -8.2233    4.9259    0.5678 O.co2     1 ATP        -0.8737
      3 O2G        -7.9956    4.9945    3.1889 O.co2     1 ATP        -0.8737
      4 O3G        -8.3562    2.7869    1.9568 O.3       1 ATP        -0.7971
      5 PB         -5.3893    3.0598    0.6038 P.3       1 ATP         1.6824
      6 O1B        -5.8403    1.6198    0.7056 O.co2     1 ATP        -0.8925
      7 O2B        -5.4457    3.8074   -0.7097 O.co2     1 ATP        -0.8925
      8 O3B        -6.1724    3.9349    1.7382 O.3       1 ATP        -0.8047
      9 PA         -3.2890    2.7005    2.6567 P.3       1 ATP         1.5908
     10 O1A        -3.3524    1.1904    2.7326 O.co2     1 ATP        -0.8932
     11 O2A        -3.9196    3.5563    3.7336 O.co2     1 ATP        -0.8932
     12 O3A        -3.8782    3.1790    1.2098 O.3       1 ATP        -0.8088
     13 O5'        -1.7336    3.1724    2.4750 O.3       1 ATP        -0.5646
     14 C5'        -0.8811    2.4285    1.6206 C.3       1 ATP         0.2204
     15 C4'        -0.1994    1.3333    2.4288 C.3       1 ATP         0.0965
     16 O4'        -1.1285    0.2356    2.5840 O.3       1 ATP        -0.3907
     17 C3'         1.0324    0.7610    1.7344 C.3       1 ATP         0.0763
     18 O3'         1.9175    0.2377    2.7247 O.3       1 ATP        -0.5884
     19 C2'         0.4468   -0.3802    0.9263 C.3       1 ATP         0.0784
     20 O2'         1.3993   -1.3703    0.5961 O.3       1 ATP        -0.6085
     21 C1'        -0.6159   -0.9100    1.8769 C.3       1 ATP         0.2186
     22 N9         -1.7127   -1.6108    1.2130 N.pl3     1 ATP        -0.1699
     23 C8         -2.8662   -1.0361    0.7388 C.ar      1 ATP         0.4438
     24 N7         -3.6774   -1.9166    0.1867 N.2       1 ATP        -0.6280
     25 C5         -3.0159   -3.1045    0.3122 C.ar      1 ATP         0.2109
     26 C6         -3.4377   -4.4169   -0.1199 C.ar      1 ATP         0.6180
     27 N6         -4.5720   -4.5691   -0.7080 N.2       1 ATP        -0.8319
     28 N1         -2.4600   -5.3463    0.2071 N.pl3     1 ATP        -0.8664
     29 C2         -1.2595   -5.0554    0.8515 C.ar      1 ATP         0.5952
     30 N3         -0.8555   -3.8803    1.2516 N.2       1 ATP        -0.5599
     31 C4         -1.7946   -2.9457    0.9448 C.ar      1 ATP         0.0076
     32 HOG3       -8.1113    2.1449    1.2566 H         1 ATP         0.4101
     33 H5'1       -1.4800    1.9927    0.8146 H         1 ATP         0.0364
     34 H5'2       -0.1367    3.1040    1.1872 H         1 ATP         0.0364
     35 H4'         0.0403    1.7078    3.4343 H         1 ATP         0.0945
     36 H3'         1.5907    1.4859    1.1353 H         1 ATP         0.0703
     37 HO3'        2.6839   -0.1150    2.2479 H         1 ATP         0.4099
     38 H2'        -0.0017    0.0018    0.0005 H         1 ATP         0.0676
     39 HO2'        1.7495   -1.7243    1.4324 H         1 ATP         0.4291
     40 H1'        -0.1998   -1.6319    2.6178 H         1 ATP         0.0950
     41 H8         -3.0558    0.0252    0.8256 H         1 ATP         0.1135
     42 HN62       -4.7047   -5.5592   -0.9421 H         1 ATP         0.3588
     43 H2         -0.6372   -5.9505    1.0077 H         1 ATP         0.0302
     44 H44        -2.6338   -6.3155   -0.0469 H         1 ATP         0.4215
@<TRIPOS>BOND
     1    1    2 2
     2    1    3 1
     3    1    4 1
     4    1    8 1
     5    4   32 1
     6    5    6 2
     7    5    7 1
     8    5    8 1
     9    5   12 1
    10    9   10 2
    11    9   11 1
    12    9   12 1
    13    9   13 1
    14   13   14 1
    15   14   15 1
    16   14   33 1
    17   14   34 1
    18   15   16 1
    19   15   17 1
    20   15   35 1
    21   16   21 1
    22   17   18 1
    23   17   19 1
    24   17   36 1
    25   18   37 1
    26   19   20 1
    27   19   21 1
    28   19   38 1
    29   20   39 1
    30   21   22 1
    31   21   40 1
    32   22   23 ar
    33   22   31 ar
    34   23   24 ar
    35   23   41 1
    36   24   25 ar
    37   25   26 ar
    38   25   31 ar
    39   26   27 2
    40   26   28 ar
    41   27   42 1
    42   28   29 ar
    43   28   44 1
    44   29   30 ar
    45   29   43 1
    46   30   31 ar
@<TRIPOS>SUBSTRUCTURE
     1 ATP         1 GROUP 0 A     ****
@<TRIPOS>MOLECULE
[[[3,4-dihydroxy-5-(6-imino-1~{H}-purin-9-yl)tetrahydrofuran-2-yl]methoxy-oxido-phosphoryl]oxy-oxido-phosphoryl] hydrogen phosphate
   44    46     1     0     0
SMALL
USER_CHARGES

@<TRIPOS>ATOM
      1 PG         -7.1387    5.4575    0.0317 P.3       1 ATP         1.5257
      2 O1G        -7.9384    4.4175   -0.7209 O.co2     1 ATP        -0.8737
      3 O2G        -6.9729    6.8573   -0.5167 O.co2     1 ATP        -0.8737
      4 O3G        -7.7249    5.5623    1.5520 O.3       1 ATP        -0.7971
      5 PB         -4.4385    4.4456   -0.6228 P.3       1 ATP         1.6824
      6 O1B        -4.8654    3.2632   -1.4638 O.co2     1 ATP        -0.8925
      7 O2B        -3.9005    5.7071   -1.2607 O.co2     1 ATP        -0.8925
      8 O3B        -5.6651    4.8467    0.3772 O.3       1 ATP        -0.8047
      9 PA         -3.5002    2.7198    1.5899 P.3       1 ATP         1.5908
     10 O1A        -3.5694    1.4028    0.8475 O.co2     1 ATP        -0.8932
     11 O2A        -4.5647    3.0969    2.5970 O.co2     1 ATP        -0.8932
     12 O3A        -3.3718    3.9308    0.5005 O.3       1 ATP        -0.8088
     13 O5'        -2.0401    2.8620    2.3128 O.3       1 ATP        -0.5646
     14 C5'        -0.8811    2.4285    1.6206 C.3       1 ATP         0.2204
     15 C4'        -0.1994    1.3333    2.4288 C.3       1 ATP         0.0965
     16 O4'        -1.1285    0.2356    2.5840 O.3       1 ATP        -0.3907
     17 C3'         1.0324    0.7610    1.7344 C.3       1 ATP         0.0763
     18 O3'         1.9175    0.2377    2.7247 O.3       1 ATP        -0.5884
     19 C2'         0.4468   -0.3802    0.9263 C.3       1 ATP         0.0784
     20 O2'         1.3993   -1.3703    0.5961 O.3       1 ATP        -0.6085
     21 C1'        -0.6159   -0.9100    1.8769 C.3       1 ATP         0.2186
     22 N9         -1.7127   -1.6108    1.2130 N.pl3     1 ATP        -0.1699
     23 C8         -2.5485   -1.0808    0.2609 C.ar      1 ATP         0.4438
     24 N7         -3.4476   -1.9486   -0.1593 N.2       1 ATP        -0.6280
     25 C5         -3.1762   -3.0816    0.5530 C.ar      1 ATP         0.2109
     26 C6         -3.8510   -4.3579    0.5006 C.ar      1 ATP         0.6180
     27 N6         -4.8468   -4.5293   -0.2961 N.2       1 ATP        -0.8319
     28 N1         -3.2499   -5.2342    1.3937 N.pl3     1 ATP        -0.8664
     29 C2         -2.1646   -4.9275    2.2116 C.ar      1 ATP         0.5952
     30 N3         -1.5382   -3.7840    2.2778 N.2       1 ATP        -0.5599
     31 C4         -2.1054   -2.9018    1.4120 C.ar      1 ATP         0.0076
     32 HOG3       -7.3076    6.1994    2.1704 H         1 ATP         0.4101
     33 H5'1       -1.1767    2.0502    0.6368 H         1 ATP         0.0364
     34 H5'2       -0.2080    3.2814    1.4876 H         1 ATP         0.0364
     35 H4'         0.0403    1.7078    3.4343 H         1 ATP         0.0945
     36 H3'         1.5907    1.4859    1.1353 H         1 ATP         0.0703
     37 HO3'        2.1521    0.9800    3.3017 H         1 ATP         0.4099
     38 H2'        -0.0017    0.0018    0.0005 H         1 ATP         0.0676
     39 HO2'        1.7495   -1.7243    1.4324 H         1 ATP         0.4291
     40 H1'        -0.1998   -1.6319    2.6178 H         1 ATP         0.0950
     41 H8         -2.4515   -0.0599   -0.0829 H         1 ATP         0.1135
     42 HN62       -5.1990   -5.4882   -0.2005 H         1 ATP         0.3588
     43 H2         -1.8555   -5.7783    2.8388 H         1 ATP         0.0302
     44 H44        -3.6312   -6.1750    1.4526 H         1 ATP         0.4215
@<TRIPOS>BOND
     1    1    2 2
     2    1    3 1
     3    1    4 1
     4    1    8 1
     5    4   32 1
     6    5    6 2
     7    5    7 1
     8    5    8 1
     9    5   12 1
    10    9   10 2
    11    9   11 1
    12    9   12 1
    13    9   13 1
    14   13   14 1
    15   14   15 1
    16   14   33 1
    17   14   34 1
    18   15   16 1
    19   15   17 1
    20   15   35 1
    21   16   21 1
    22   17   18 1
    23   17   19 1
    24   17   36 1
    25   18   37 1
    26   19   20 1
    27   19   21 1
    28   19   38 1
    29   20   39 1
    30   21   22 1
    31   21   40 1
    32   22   23 ar
    33   22   31 ar
    34   23   24 ar
    35   23   41 1
    36   24   25 ar
    37   25   26 ar
    38   25   31 ar
    39   26   27 2
    40   26   28 ar
    41   27   42 1
    42   28   29 ar
    43   28   44 1
    44   29   30 ar
    45   29   43 1
    46   30   31 ar
@<TRIPOS>SUBSTRUCTURE
     1 ATP         1 GROUP 0 A     ****
@<TRIPOS>MOLECULE
[[[3,4-dihydroxy-5-(6-imino-1~{H}-purin-9-yl)tetrahydrofuran-2-yl]methoxy-oxido-phosphoryl]oxy-oxido-phosphoryl] hydrogen phosphate
   44    46     1     0     0
SMALL
USER_CHARGES

@<TRIPOS>ATOM
      1 PG         -5.3913   -0.3564    1.9829 P.3       1 ATP         1.5257
      2 O1G        -6.6282   -0.2037    2.8398 O.co2     1 ATP        -0.8737
      3 O2G        -4.0098   -0.3122    2.5972 O.co2     1 ATP        -0.8737
      4 O3G        -5.5286   -1.7320    1.1143 O.3       1 ATP        -0.7971
      5 PB         -5.3881    2.3486    0.7885 P.3       1 ATP         1.6824
      6 O1B        -5.3246    2.8596   -0.6336 O.co2     1 ATP        -0.8925
      7 O2B        -6.4294    2.8601    1.7589 O.co2     1 ATP        -0.8925
      8 O3B        -5.4592    0.7178    0.7560 O.3       1 ATP        -0.8047
      9 PA         -3.0798    3.8627    1.8536 P.3       1 ATP         1.5908
     10 O1A        -3.8220    4.5968    2.9492 O.co2     1 ATP        -0.8932
     11 O2A        -2.6995    4.5681    0.5701 O.co2     1 ATP        -0.8932
     12 O3A        -3.9133    2.5109    1.4692 O.3       1 ATP        -0.8088
     13 O5'        -1.7336    3.1724    2.4750 O.3       1 ATP        -0.5646
     14 C5'        -0.8811    2.4285    1.6206 C.3       1 ATP         0.2204
     15 C4'        -0.1994    1.3333    2.4288 C.3       1 ATP         0.0965
     16 O4'        -1.1285    0.2356    2.5840 O.3       1 ATP        -0.3907
     17 C3'         1.0324    0.7610    1.7344 C.3       1 ATP         0.0763
     18 O3'         1.9175    0.2377    2.7247 O.3       1 ATP        -0.5884
     19 C2'         0.4468   -0.3802    0.9263 C.3       1 ATP         0.0784
     20 O2'         1.3993   -1.3703    0.5961 O.3       1 ATP        -0.6085
     21 C1'        -0.6159   -0.9100    1.8769 C.3       1 ATP         0.2186
     22 N9         -1.7127   -1.6108    1.2130 N.pl3     1 ATP        -0.1699
     23 C8         -2.5485   -1.0808    0.2609 C.ar      1 ATP         0.4438
     24 N7         -3.4476   -1.9486   -0.1593 N.2       1 ATP        -0.6280
     25 C5         -3.1762   -3.0816    0.5530 C.ar      1 ATP         0.2109
     26 C6         -3.8510   -4.3579    0.5006 C.ar      1 ATP         0.6180
     27 N6         -4.8468   -4.5293   -0.2961 N.2       1 ATP        -0.8319
     28 N1         -3.2499   -5.2342    1.3937 N.pl3     1 ATP        -0.8664
     29 C2         -2.1646   -4.9275    2.2116 C.ar      1 ATP         0.5952
     30 N3         -1.5382   -3.7840    2.2778 N.2       1 ATP        -0.5599
     31 C4         -2.1054   -2.9018    1.4120 C.ar      1 ATP         0.0076
     32 HOG3       -6.2859   -1.8209    0.4971 H         1 ATP         0.4101
     33 H5'1       -1.4800    1.9927    0.8146 H         1 ATP         0.0364
     34 H5'2       -0.1367    3.1040    1.1872 H         1 ATP         0.0364
     35 H4'         0.0403    1.7078    3.4343 H         1 ATP         0.0945
     36 H3'         1.5907    1.4859    1.1353 H         1 ATP         0.0703
     37 HO3'        2.6839   -0.1150    2.2479 H         1 ATP         0.4099
     38 H2'        -0.0017    0.0018    0.0005 H         1 ATP         0.0676
     39 HO2'        0.9369   -2.0558    0.0825 H         1 ATP         0.4291
     40 H1'        -0.1998   -1.6319    2.6178 H         1 ATP         0.0950
     41 H8         -2.4515   -0.0599   -0.0829 H         1 ATP         0.1135
     42 HN62       -5.1990   -5.4882   -0.2005 H         1 ATP         0.3588
     43 H2         -1.8555   -5.7783    2.8388 H         1 ATP         0.0302
     44 H44        -3.6312   -6.1750    1.4526 H         1 ATP         0.4215
@<TRIPOS>BOND
     1    1    2 2
     2    1    3 1
     3    1    4 1
     4    1    8 1
     5    4   32 1
     6    5    6 2
     7    5    7 1
     8    5    8 1
     9    5   12 1
    10    9   10 2
    11    9   11 1
    12    9   12 1
    13    9   13 1
    14   13   14 1
    15   14   15 1
    16   14   33 1
    17   14   34 1
    18   15   16 1
    19   15   17 1
    20   15   35 1
    21   16   21 1
    22   17   18 1
    23   17   19 1
    24   17   36 1
    25   18   37 1
    26   19   20 1
    27   19   21 1
    28   19   38 1
    29   20   39 1
    30   21   22 1
    31   21   40 1
    32   22   23 ar
    33   22   31 ar
    34   23   24 ar
    35   23   41 1
    36   24   25 ar
    37   25   26 ar
    38   25   31 ar
    39   26   27 2
    40   26   28 ar
    41   27   42 1
    42   28   29 ar
    43   28   44 1
    44   29   30 ar
    45   29   43 1
    46   30   31 ar
@<TRIPOS>SUBSTRUCTURE
     1 ATP         1 GROUP 0 A     ****
@<TRIPOS>MOLECULE
[[[3,4-dihydroxy-5-(6-imino-1~{H}-purin-9-yl)tetrahydrofuran-2-yl]methoxy-oxido-phosphoryl]oxy-oxido-phosphoryl] hydrogen phosphate
   44    46     1     0     0
SMALL
USER_CHARGES

@<TRIPOS>ATOM
      1 PG         -6.8739    1.1213   -2.0174 P.3       1 ATP         1.5257
      2 O1G        -6.5118    0.3773   -3.2834 O.co2     1 ATP        -0.8737
      3 O2G        -7.6469    2.4201   -2.0732 O.co2     1 ATP        -0.8737
      4 O3G        -7.6570    0.0944   -1.0183 O.3       1 ATP        -0.7971
      5 PB         -5.3515    1.9494    0.3785 P.3       1 ATP         1.6824
      6 O1B        -5.7321    3.4131    0.3623 O.co2     1 ATP        -0.8925
      7 O2B        -5.9822    0.9868    1.3598 O.co2     1 ATP        -0.8925
      8 O3B        -5.5233    1.3473   -1.1294 O.3       1 ATP        -0.8047
      9 PA         -2.5569    2.5166   -0.4115 P.3       1 ATP         1.5908
     10 O1A        -2.6047    4.0168   -0.2187 O.co2     1 ATP        -0.8932
     11 O2A        -2.6189    1.9124   -1.7974 O.co2     1 ATP        -0.8932
     12 O3A        -3.7278    1.8323    0.5000 O.3       1 ATP        -0.8088
     13 O5'        -1.2434    1.9104    0.3515 O.3       1 ATP        -0.5646
     14 C5'        -0.8811    2.4285    1.6206 C.3       1 ATP         0.2204
     15 C4'        -0.1994    1.3333    2.4288 C.3       1 ATP         0.0965
     16 O4'        -1.1285    0.2356    2.5840 O.3       1 ATP        -0.3907
     17 C3'         1.0324    0.7610    1.7344 C.3       1 ATP         0.0763
     18 O3'         1.9175    0.2377    2.7247 O.3       1 ATP        -0.5884
     19 C2'         0.4468   -0.3802    0.9263 C.3       1 ATP         0.0784
     20 O2'         1.3993   -1.3703    0.5961 O.3       1 ATP        -0.6085
     21 C1'        -0.6159   -0.9100    1.8769 C.3       1 ATP         0.2186
     22 N9         -1.7127   -1.6108    1.2130 N.pl3     1 ATP        -0.1699
     23 C8         -2.8662   -1.0361    0.7388 C.ar      1 ATP         0.4438
     24 N7         -3.6774   -1.9166    0.1867 N.2       1 ATP        -0.6280
     25 C5         -3.0159   -3.1045    0.3122 C.ar      1 ATP         0.2109
     26 C6         -3.4377   -4.4169   -0.1199 C.ar      1 ATP         0.6180
     27 N6         -4.5720   -4.5691   -0.7080 N.2       1 ATP        -0.8319
     28 N1         -2.4600   -5.3463    0.2071 N.pl3     1 ATP        -0.8664
     29 C2         -1.2595   -5.0554    0.8515 C.ar      1 ATP         0.5952
     30 N3         -0.8555   -3.8803    1.2516 N.2       1 ATP        -0.5599
     31 C4         -1.7946   -2.9457    0.9448 C.ar      1 ATP         0.0076
     32 HOG3       -7.9601    0.4302   -0.1478 H         1 ATP         0.4101
     33 H5'1       -0.2033    3.2760    1.4769 H         1 ATP         0.0364
     34 H5'2       -1.7841    2.7762    2.1323 H         1 ATP         0.0364
     35 H4'         0.0403    1.7078    3.4343 H         1 ATP         0.0945
     36 H3'         1.5907    1.4859    1.1353 H         1 ATP         0.0703
     37 HO3'        2.6839   -0.1150    2.2479 H         1 ATP         0.4099
     38 H2'        -0.0017    0.0018    0.0005 H         1 ATP         0.0676
     39 HO2'        2.0953   -0.9375    0.0709 H         1 ATP         0.4291
     40 H1'        -0.1998   -1.6319    2.6178 H         1 ATP         0.0950
     41 H8         -3.0558    0.0252    0.8256 H         1 ATP         0.1135
     42 HN62       -4.7047   -5.5592   -0.9421 H         1 ATP         0.3588
     43 H2         -0.6372   -5.9505    1.0077 H         1 ATP         0.0302
     44 H44        -2.6338   -6.3155   -0.0469 H         1 ATP         0.4215
@<TRIPOS>BOND
     1    1    2 2
     2    1    3 1
     3    1    4 1
     4    1    8 1
     5    4   32 1
     6    5    6 2
     7    5    7 1
     8    5    8 1
     9    5   12 1
    10    9   10 2
    11    9   11 1
    12    9   12 1
    13    9   13 1
    14   13   14 1
    15   14   15 1
    16   14   33 1
    17   14   34 1
    18   15   16 1
    19   15   17 1
    20   15   35 1
    21   16   21 1
    22   17   18 1
    23   17   19 1
    24   17   36 1
    25   18   37 1
    26   19   20 1
    27   19   21 1
    28   19   38 1
    29   20   39 1
    30   21   22 1
    31   21   40 1
    32   22   23 ar
    33   22   31 ar
    34   23   24 ar
    35   23   41 1
    36   24   25 ar
    37   25   26 ar
    38   25   31 ar
    39   26   27 2
    40   26   28 ar
    41   27   42 1
    42   28   29 ar
    43   28   44 1
    44   29   30 ar
    45   29   43 1
    46   30   31 ar
@<TRIPOS>SUBSTRUCTURE
     1 ATP         1 GROUP 0 A     ****
@<TRIPOS>MOLECULE
[[[3,4-dihydroxy-5-(6-imino-1~{H}-purin-9-yl)tetrahydrofuran-2-yl]methoxy-oxido-phosphoryl]oxy-oxido-phosphoryl] hydrogen phosphate
   44    46     1     0     0
SMALL
USER_CHARGES

@<TRIPOS>ATOM
      1 PG          5.5256   -0.2853    3.9945 P.3       1 ATP         1.5257
      2 O1G         6.5355   -1.3628    3.6681 O.co2     1 ATP        -0.8737
      3 O2G         4.3927    0.0318    3.0439 O.co2     1 ATP        -0.8737
      4 O3G         4.8945   -0.5951    5.4682 O.3       1 ATP        -0.7971
      5 PB          7.2244    2.0592    3.3935 P.3       1 ATP         1.6824
      6 O1B         7.5954    3.3033    4.1693 O.co2     1 ATP        -0.8925
      7 O2B         8.2803    1.2147    2.7157 O.co2     1 ATP        -0.8925
      8 O3B         6.3189    1.0957    4.3513 O.3       1 ATP        -0.8047
      9 PA          6.1805    3.4023    0.9725 P.3       1 ATP         1.5908
     10 O1A         7.1179    2.7555   -0.0240 O.co2     1 ATP        -0.8932
     11 O2A         6.4010    4.8280    1.4293 O.co2     1 ATP        -0.8932
     12 O3A         6.0809    2.4487    2.2956 O.3       1 ATP        -0.8088
     13 O5'         4.6405    3.2699    0.4378 O.3       1 ATP        -0.5646
     14 C5'         4.0922    1.9801    0.2227 C.3       1 ATP         0.2204
     15 C4'         2.5944    2.0310    0.4653 C.3       1 ATP         0.0965
     16 O4'         1.9327    2.5740   -0.6889 O.3       1 ATP        -0.3907
     17 C3'         1.9685    0.6634    0.6767 C.3       1 ATP         0.0763
     18 O3'         2.1425    0.1975    1.9977 O.3       1 ATP        -0.5884
     19 C2'         0.5176    0.9128    0.3099 C.3       1 ATP         0.0784
     20 O2'        -0.2103    1.4454    1.4152 O.3       1 ATP        -0.6085
     21 C1'         0.6219    1.9765   -0.7844 C.3       1 ATP         0.2186
     22 N9          0.4237    1.4496   -2.1357 N.pl3     1 ATP        -0.1699
     23 C8          1.4069    0.9710   -2.9662 C.ar      1 ATP         0.4438
     24 N7          0.9316    0.5623   -4.1260 N.2       1 ATP        -0.6280
     25 C5         -0.4120    0.7884   -4.0344 C.ar      1 ATP         0.2109
     26 C6         -1.4353    0.5283   -5.0204 C.ar      1 ATP         0.6180
     27 N6         -1.1199    0.0176   -6.1586 N.2       1 ATP        -0.8319
     28 N1         -2.6704    0.9095   -4.5147 N.pl3     1 ATP        -0.8664
     29 C2         -2.8863    1.4571   -3.2520 C.ar      1 ATP         0.5952
     30 N3         -1.9805    1.7017   -2.3442 N.2       1 ATP        -0.5599
     31 C4         -0.7561    1.3381   -2.8112 C.ar      1 ATP         0.0076
     32 HOG3        4.2183    0.0194    5.8250 H         1 ATP         0.4101
     33 H5'1        4.3028    1.6728   -0.8066 H         1 ATP         0.0364
     34 H5'2        4.5677    1.2738    0.9106 H         1 ATP         0.0364
     35 H4'         2.3752    2.7029    1.3156 H         1 ATP         0.0945
     36 H3'         2.4336   -0.1217   -0.0015 H         1 ATP         0.0703
     37 HO3'        3.0987    0.1465    2.1461 H         1 ATP         0.4099
     38 H2'         0.0316    0.0155   -0.0339 H         1 ATP         0.0676
     39 HO2'       -1.1270    1.5823    1.1180 H         1 ATP         0.4291
     40 H1'        -0.1474    2.7798   -0.6651 H         1 ATP         0.0950
     41 H8          2.4466    0.9468   -2.6694 H         1 ATP         0.1135
     42 HN62       -1.9661   -0.0965   -6.7275 H         1 ATP         0.3588
     43 H2         -3.9481    1.6825   -3.0660 H         1 ATP         0.0302
     44 H44        -3.4814    0.7753   -5.1133 H         1 ATP         0.4215
@<TRIPOS>BOND
     1    1    2 2
     2    1    3 1
     3    1    4 1
     4    1    8 1
     5    4   32 1
     6    5    6 2
     7    5    7 1
     8    5    8 1
     9    5   12 1
    10    9   10 2
    11    9   11 1
    12    9   12 1
    13    9   13 1
    14   13   14 1
    15   14   15 1
    16   14   33 1
    17   14   34 1
    18   15   16 1
    19   15   17 1
    20   15   35 1
    21   16   21 1
    22   17   18 1
    23   17   19 1
    24   17   36 1
    25   18   37 1
    26   19   20 1
    27   19   21 1
    28   19   38 1
    29   20   39 1
    30   21   22 1
    31   21   40 1
    32   22   23 ar
    33   22   31 ar
    34   23   24 ar
    35   23   41 1
    36   24   25 ar
    37   25   26 ar
    38   25   31 ar
    39   26   27 2
    40   26   28 ar
    41   27   42 1
    42   28   29 ar
    43   28   44 1
    44   29   30 ar
    45   29   43 1
    46   30   31 ar
@<TRIPOS>SUBSTRUCTURE
     1 ATP         1 GROUP 0 A     ****
@<TRIPOS>MOLECULE
[[[3,4-dihydroxy-5-(6-imino-1~{H}-purin-9-yl)tetrahydrofuran-2-yl]methoxy-oxido-phosphoryl]oxy-oxido-phosphoryl] hydrogen phosphate
   44    46     1     0     0
SMALL
USER_CHARGES

@<TRIPOS>ATOM
      1 PG         -6.8246    4.5049    0.5861 P.3       1 ATP         1.5257
      2 O1G        -6.4027    5.9564    0.6364 O.co2     1 ATP        -0.8737
      3 O2G        -7.8107    3.9469    1.5881 O.co2     1 ATP        -0.8737
      4 O3G        -7.3702    4.1751   -0.9170 O.3       1 ATP        -0.7971
      5 PB         -5.3515    1.9494    0.3785 P.3       1 ATP         1.6824
      6 O1B        -5.9778    1.2591    1.5695 O.co2     1 ATP        -0.8925
      7 O2B        -5.7590    1.5971   -1.0348 O.co2     1 ATP        -0.8925
      8 O3B        -5.4910    3.5641    0.5763 O.3       1 ATP        -0.8047
      9 PA         -2.5569    2.5166   -0.4115 P.3       1 ATP         1.5908
     10 O1A        -2.6047    4.0168   -0.2187 O.co2     1 ATP        -0.8932
     11 O2A        -2.6189    1.9124   -1.7974 O.co2     1 ATP        -0.8932
     12 O3A        -3.7278    1.8323    0.5000 O.3       1 ATP        -0.8088
     13 O5'        -1.2434    1.9104    0.3515 O.3       1 ATP        -0.5646
     14 C5'        -0.8811    2.4285    1.6206 C.3       1 ATP         0.2204
     15 C4'        -0.1994    1.3333    2.4288 C.3       1 ATP         0.0965
     16 O4'        -1.1285    0.2356    2.5840 O.3       1 ATP        -0.3907
     17 C3'         1.0324    0.7610    1.7344 C.3       1 ATP         0.0763
     18 O3'         1.9175    0.2377    2.7247 O.3       1 ATP        -0.5884
     19 C2'         0.4468   -0.3802    0.9263 C.3       1 ATP         0.0784
     20 O2'         1.3993   -1.3703    0.5961 O.3       1 ATP        -0.6085
     21 C1'        -0.6159   -0.9100    1.8769 C.3       1 ATP         0.2186
     22 N9         -1.7127   -1.6108    1.2130 N.pl3     1 ATP        -0.1699
     23 C8         -2.8662   -1.0361    0.7388 C.ar      1 ATP         0.4438
     24 N7         -3.6774   -1.9166    0.1867 N.2       1 ATP        -0.6280
     25 C5         -3.0159   -3.1045    0.3122 C.ar      1 ATP         0.2109
     26 C6         -3.4377   -4.4169   -0.1199 C.ar      1 ATP         0.6180
     27 N6         -4.5720   -4.5691   -0.7080 N.2       1 ATP        -0.8319
     28 N1         -2.4600   -5.3463    0.2071 N.pl3     1 ATP        -0.8664
     29 C2         -1.2595   -5.0554    0.8515 C.ar      1 ATP         0.5952
     30 N3         -0.8555   -3.8803    1.2516 N.2       1 ATP        -0.5599
     31 C4         -1.7946   -2.9457    0.9448 C.ar      1 ATP         0.0076
     32 HOG3       -7.6835    3.2660   -1.1110 H         1 ATP         0.4101
     33 H5'1       -0.2033    3.2760    1.4769 H         1 ATP         0.0364
     34 H5'2       -1.7841    2.7762    2.1323 H         1 ATP         0.0364
     35 H4'         0.0403    1.7078    3.4343 H         1 ATP         0.0945
     36 H3'         1.5907    1.4859    1.1353 H         1 ATP         0.0703
     37 HO3'        2.6839   -0.1150    2.2479 H         1 ATP         0.4099
     38 H2'        -0.0017    0.0018    0.0005 H         1 ATP         0.0676
     39 HO2'        2.0953   -0.9375    0.0709 H         1 ATP         0.4291
     40 H1'        -0.1998   -1.6319    2.6178 H         1 ATP         0.0950
     41 H8         -3.0558    0.0252    0.8256 H         1 ATP         0.1135
     42 HN62       -4.7047   -5.5592   -0.9421 H         1 ATP         0.3588
     43 H2         -0.6372   -5.9505    1.0077 H         1 ATP         0.0302
     44 H44        -2.6338   -6.3155   -0.0469 H         1 ATP         0.4215
@<TRIPOS>BOND
     1    1    2 2
     2    1    3 1
     3    1    4 1
     4    1    8 1
     5    4   32 1
     6    5    6 2
     7    5    7 1
     8    5    8 1
     9    5   12 1
    10    9   10 2
    11    9   11 1
    12    9   12 1
    13    9   13 1
    14   13   14 1
    15   14   15 1
    16   14   33 1
    17   14   34 1
    18   15   16 1
    19   15   17 1
    20   15   35 1
    21   16   21 1
    22   17   18 1
    23   17   19 1
    24   17   36 1
    25   18   37 1
    26   19   20 1
    27   19   21 1
    28   19   38 1
    29   20   39 1
    30   21   22 1
    31   21   40 1
    32   22   23 ar
    33   22   31 ar
    34   23   24 ar
    35   23   41 1
    36   24   25 ar
    37   25   26 ar
    38   25   31 ar
    39   26   27 2
    40   26   28 ar
    41   27   42 1
    42   28   29 ar
    43   28   44 1
    44   29   30 ar
    45   29   43 1
    46   30   31 ar
@<TRIPOS>SUBSTRUCTURE
     1 ATP         1 GROUP 0 A     ****
@<TRIPOS>MOLECULE
[[[3,4-dihydroxy-5-(6-imino-1~{H}-purin-9-yl)tetrahydrofuran-2-yl]methoxy-oxido-phosphoryl]oxy-oxido-phosphoryl] hydrogen phosphate
   44    46     1     0     0
SMALL
USER_CHARGES

@<TRIPOS>ATOM
      1 PG         -5.4709    2.7326   -2.8007 P.3       1 ATP         1.5257
      2 O1G        -5.3715    1.2551   -3.1083 O.co2     1 ATP        -0.8737
      3 O2G        -5.1780    3.7690   -3.8627 O.co2     1 ATP        -0.8737
      4 O3G        -6.9490    3.0340   -2.1759 O.3       1 ATP        -0.7971
      5 PB         -4.4385    4.4456   -0.6228 P.3       1 ATP         1.6824
      6 O1B        -3.7659    5.4876   -1.4885 O.co2     1 ATP        -0.8925
      7 O2B        -5.7607    4.7259    0.0560 O.co2     1 ATP        -0.8925
      8 O3B        -4.5725    3.0615   -1.4785 O.3       1 ATP        -0.8047
      9 PA         -3.5002    2.7198    1.5899 P.3       1 ATP         1.5908
     10 O1A        -3.5694    1.4028    0.8475 O.co2     1 ATP        -0.8932
     11 O2A        -4.5647    3.0969    2.5970 O.co2     1 ATP        -0.8932
     12 O3A        -3.3718    3.9308    0.5005 O.3       1 ATP        -0.8088
     13 O5'        -2.0401    2.8620    2.3128 O.3       1 ATP        -0.5646
     14 C5'        -0.8811    2.4285    1.6206 C.3       1 ATP         0.2204
     15 C4'        -0.1994    1.3333    2.4288 C.3       1 ATP         0.0965
     16 O4'        -1.1285    0.2356    2.5840 O.3       1 ATP        -0.3907
     17 C3'         1.0324    0.7610    1.7344 C.3       1 ATP         0.0763
     18 O3'         1.9175    0.2377    2.7247 O.3       1 ATP        -0.5884
     19 C2'         0.4468   -0.3802    0.9263 C.3       1 ATP         0.0784
     20 O2'         1.3993   -1.3703    0.5961 O.3       1 ATP        -0.6085
     21 C1'        -0.6159   -0.9100    1.8769 C.3       1 ATP         0.2186
     22 N9         -1.7127   -1.6108    1.2130 N.pl3     1 ATP        -0.1699
     23 C8         -2.5485   -1.0808    0.2609 C.ar      1 ATP         0.4438
     24 N7         -3.4476   -1.9486   -0.1593 N.2       1 ATP        -0.6280
     25 C5         -3.1762   -3.0816    0.5530 C.ar      1 ATP         0.2109
     26 C6         -3.8510   -4.3579    0.5006 C.ar      1 ATP         0.6180
     27 N6         -4.8468   -4.5293   -0.2961 N.2       1 ATP        -0.8319
     28 N1         -3.2499   -5.2342    1.3937 N.pl3     1 ATP        -0.8664
     29 C2         -2.1646   -4.9275    2.2116 C.ar      1 ATP         0.5952
     30 N3         -1.5382   -3.7840    2.2778 N.2       1 ATP        -0.5599
     31 C4         -2.1054   -2.9018    1.4120 C.ar      1 ATP         0.0076
     32 HOG3       -7.2076    2.5772   -1.3472 H         1 ATP         0.4101
     33 H5'1       -1.1767    2.0502    0.6368 H         1 ATP         0.0364
     34 H5'2       -0.2080    3.2814    1.4876 H         1 ATP         0.0364
     35 H4'         0.0403    1.7078    3.4343 H         1 ATP         0.0945
     36 H3'         1.5907    1.4859    1.1353 H         1 ATP         0.0703
     37 HO3'        2.1521    0.9800    3.3017 H         1 ATP         0.4099
     38 H2'        -0.0017    0.0018    0.0005 H         1 ATP         0.0676
     39 HO2'        0.9369   -2.0558    0.0825 H         1 ATP         0.4291
     40 H1'        -0.1998   -1.6319    2.6178 H         1 ATP         0.0950
     41 H8         -2.4515   -0.0599   -0.0829 H         1 ATP         0.1135
     42 HN62       -5.1990   -5.4882   -0.2005 H         1 ATP         0.3588
     43 H2         -1.8555   -5.7783    2.8388 H         1 ATP         0.0302
     44 H44        -3.6312   -6.1750    1.4526 H         1 ATP         0.4215
@<TRIPOS>BOND
     1    1    2 2
     2    1    3 1
     3    1    4 1
     4    1    8 1
     5    4   32 1
     6    5    6 2
     7    5    7 1
     8    5    8 1
     9    5   12 1
    10    9   10 2
    11    9   11 1
    12    9   12 1
    13    9   13 1
    14   13   14 1
    15   14   15 1
    16   14   33 1
    17   14   34 1
    18   15   16 1
    19   15   17 1
    20   15   35 1
    21   16   21 1
    22   17   18 1
    23   17   19 1
    24   17   36 1
    25   18   37 1
    26   19   20 1
    27   19   21 1
    28   19   38 1
    29   20   39 1
    30   21   22 1
    31   21   40 1
    32   22   23 ar
    33   22   31 ar
    34   23   24 ar
    35   23   41 1
    36   24   25 ar
    37   25   26 ar
    38   25   31 ar
    39   26   27 2
    40   26   28 ar
    41   27   42 1
    42   28   29 ar
    43   28   44 1
    44   29   30 ar
    45   29   43 1
    46   30   31 ar
@<TRIPOS>SUBSTRUCTURE
     1 ATP         1 GROUP 0 A     ****
@<TRIPOS>MOLECULE
[[[3,4-dihydroxy-5-(6-imino-1~{H}-purin-9-yl)tetrahydrofuran-2-yl]methoxy-oxido-phosphoryl]oxy-oxido-phosphoryl] hydrogen phosphate
   44    46     1     0     0
SMALL
USER_CHARGES

@<TRIPOS>ATOM
      1 PG          5.1091    2.2648   -6.0695 P.3       1 ATP         1.5257
      2 O1G         3.6559    1.9934   -6.3888 O.co2     1 ATP        -0.8737
      3 O2G         6.1948    1.3128   -6.5198 O.co2     1 ATP        -0.8737
      4 O3G         5.4842    3.7646   -6.5948 O.3       1 ATP        -0.7971
      5 PB          6.5612    3.0002   -3.6009 P.3       1 ATP         1.6824
      6 O1B         7.6061    1.9078   -3.6495 O.co2     1 ATP        -0.8925
      7 O2B         6.8984    4.4243   -3.9831 O.co2     1 ATP        -0.8925
      8 O3B         5.2616    2.5202   -4.4648 O.3       1 ATP        -0.8047
      9 PA          4.6015    3.8567   -1.5562 P.3       1 ATP         1.5908
     10 O1A         3.3546    3.4070   -2.2866 O.co2     1 ATP        -0.8932
     11 O2A         4.9886    5.3189   -1.5146 O.co2     1 ATP        -0.8932
     12 O3A         5.8763    3.0037   -2.1191 O.3       1 ATP        -0.8088
     13 O5'         4.5670    3.2937   -0.0211 O.3       1 ATP        -0.5646
     14 C5'         4.0922    1.9801    0.2227 C.3       1 ATP         0.2204
     15 C4'         2.5944    2.0310    0.4653 C.3       1 ATP         0.0965
     16 O4'         1.9327    2.5740   -0.6889 O.3       1 ATP        -0.3907
     17 C3'         1.9685    0.6634    0.6767 C.3       1 ATP         0.0763
     18 O3'         2.1425    0.1975    1.9977 O.3       1 ATP        -0.5884
     19 C2'         0.5176    0.9128    0.3099 C.3       1 ATP         0.0784
     20 O2'        -0.2103    1.4454    1.4152 O.3       1 ATP        -0.6085
     21 C1'         0.6219    1.9765   -0.7844 C.3       1 ATP         0.2186
     22 N9          0.4237    1.4496   -2.1357 N.pl3     1 ATP        -0.1699
     23 C8          1.4069    0.9710   -2.9662 C.ar      1 ATP         0.4438
     24 N7          0.9316    0.5623   -4.1260 N.2       1 ATP        -0.6280
     25 C5         -0.4120    0.7884   -4.0344 C.ar      1 ATP         0.2109
     26 C6         -1.4353    0.5283   -5.0204 C.ar      1 ATP         0.6180
     27 N6         -1.1199    0.0176   -6.1586 N.2       1 ATP        -0.8319
     28 N1         -2.6704    0.9095   -4.5147 N.pl3     1 ATP        -0.8664
     29 C2         -2.8863    1.4571   -3.2520 C.ar      1 ATP         0.5952
     30 N3         -1.9805    1.7017   -2.3442 N.2       1 ATP        -0.5599
     31 C4         -0.7561    1.3381   -2.8112 C.ar      1 ATP         0.0076
     32 HOG3        6.3993    4.0913   -6.4599 H         1 ATP         0.4101
     33 H5'1        4.3179    1.3548   -0.6470 H         1 ATP         0.0364
     34 H5'2        4.6083    1.5737    1.0983 H         1 ATP         0.0364
     35 H4'         2.3752    2.7029    1.3156 H         1 ATP         0.0945
     36 H3'         2.4336   -0.1217   -0.0015 H         1 ATP         0.0703
     37 HO3'        3.0987    0.1465    2.1461 H         1 ATP         0.4099
     38 H2'         0.0316    0.0155   -0.0339 H         1 ATP         0.0676
     39 HO2'       -0.1608    0.7921    2.1351 H         1 ATP         0.4291
     40 H1'        -0.1474    2.7798   -0.6651 H         1 ATP         0.0950
     41 H8          2.4466    0.9468   -2.6694 H         1 ATP         0.1135
     42 HN62       -1.9661   -0.0965   -6.7275 H         1 ATP         0.3588
     43 H2         -3.9481    1.6825   -3.0660 H         1 ATP         0.0302
     44 H44        -3.4814    0.7753   -5.1133 H         1 ATP         0.4215
@<TRIPOS>BOND
     1    1    2 2
     2    1    3 1
     3    1    4 1
     4    1    8 1
     5    4   32 1
     6    5    6 2
     7    5    7 1
     8    5    8 1
     9    5   12 1
    10    9   10 2
    11    9   11 1
    12    9   12 1
    13    9   13 1
    14   13   14 1
    15   14   15 1
    16   14   33 1
    17   14   34 1
    18   15   16 1
    19   15   17 1
    20   15   35 1
    21   16   21 1
    22   17   18 1
    23   17   19 1
    24   17   36 1
    25   18   37 1
    26   19   20 1
    27   19   21 1
    28   19   38 1
    29   20   39 1
    30   21   22 1
    31   21   40 1
    32   22   23 ar
    33   22   31 ar
    34   23   24 ar
    35   23   41 1
    36   24   25 ar
    37   25   26 ar
    38   25   31 ar
    39   26   27 2
    40   26   28 ar
    41   27   42 1
    42   28   29 ar
    43   28   44 1
    44   29   30 ar
    45   29   43 1
    46   30   31 ar
@<TRIPOS>SUBSTRUCTURE
     1 ATP         1 GROUP 0 A     ****
@<TRIPOS>MOLECULE
[[[3,4-dihydroxy-5-(6-imino-1~{H}-purin-9-yl)tetrahydrofuran-2-yl]methoxy-oxido-phosphoryl]oxy-oxido-phosphoryl] hydrogen phosphate
   44    46     1     0     0
SMALL
USER_CHARGES

@<TRIPOS>ATOM
      1 PG         -3.6173    1.7205   -2.0434 P.3       1 ATP         1.5257
      2 O1G        -3.9906    0.2643   -2.2086 O.co2     1 ATP        -0.8737
      3 O2G        -2.2556    2.1193   -1.5196 O.co2     1 ATP        -0.8737
      4 O3G        -3.8706    2.4852   -3.4637 O.3       1 ATP        -0.7971
      5 PB         -5.1692    2.2616    0.4146 P.3       1 ATP         1.6824
      6 O1B        -6.1848    3.3160    0.7947 O.co2     1 ATP        -0.8925
      7 O2B        -5.4355    0.7931    0.6598 O.co2     1 ATP        -0.8925
      8 O3B        -4.7652    2.4656   -1.1540 O.3       1 ATP        -0.8047
      9 PA         -3.2890    2.7005    2.6567 P.3       1 ATP         1.5908
     10 O1A        -3.3276    1.2949    3.2163 O.co2     1 ATP        -0.8932
     11 O2A        -4.0474    3.8228    3.3313 O.co2     1 ATP        -0.8932
     12 O3A        -3.7331    2.6526    1.0850 O.3       1 ATP        -0.8088
     13 O5'        -1.7336    3.1724    2.4750 O.3       1 ATP        -0.5646
     14 C5'        -0.8811    2.4285    1.6206 C.3       1 ATP         0.2204
     15 C4'        -0.1994    1.3333    2.4288 C.3       1 ATP         0.0965
     16 O4'        -1.1285    0.2356    2.5840 O.3       1 ATP        -0.3907
     17 C3'         1.0324    0.7610    1.7344 C.3       1 ATP         0.0763
     18 O3'         1.9175    0.2377    2.7247 O.3       1 ATP        -0.5884
     19 C2'         0.4468   -0.3802    0.9263 C.3       1 ATP         0.0784
     20 O2'         1.3993   -1.3703    0.5961 O.3       1 ATP        -0.6085
     21 C1'        -0.6159   -0.9100    1.8769 C.3       1 ATP         0.2186
     22 N9         -1.7127   -1.6108    1.2130 N.pl3     1 ATP        -0.1699
     23 C8         -1.6202   -2.3321    0.0482 C.ar      1 ATP         0.4438
     24 N7         -2.7754   -2.8539   -0.3142 N.2       1 ATP        -0.6280
     25 C5         -3.6439   -2.4502    0.6592 C.ar      1 ATP         0.2109
     26 C6         -5.0563   -2.7308    0.7745 C.ar      1 ATP         0.6180
     27 N6         -5.6468   -3.4480   -0.1158 N.2       1 ATP        -0.8319
     28 N1         -5.5549   -2.1241    1.9191 N.pl3     1 ATP        -0.8664
     29 C2         -4.8068   -1.3637    2.8153 C.ar      1 ATP         0.5952
     30 N3         -3.5318   -1.0957    2.7338 N.2       1 ATP        -0.5599
     31 C4         -3.0130   -1.6778    1.6196 C.ar      1 ATP         0.0076
     32 HOG3       -3.6736    3.4446   -3.5190 H         1 ATP         0.4101
     33 H5'1       -1.4800    1.9927    0.8146 H         1 ATP         0.0364
     34 H5'2       -0.1367    3.1040    1.1872 H         1 ATP         0.0364
     35 H4'         0.0403    1.7078    3.4343 H         1 ATP         0.0945
     36 H3'         1.5907    1.4859    1.1353 H         1 ATP         0.0703
     37 HO3'        2.6839   -0.1150    2.2479 H         1 ATP         0.4099
     38 H2'        -0.0017    0.0018    0.0005 H         1 ATP         0.0676
     39 HO2'        2.0953   -0.9375    0.0709 H         1 ATP         0.4291
     40 H1'        -0.1998   -1.6319    2.6178 H         1 ATP         0.0950
     41 H8         -0.6865   -2.4395   -0.4871 H         1 ATP         0.1135
     42 HN62       -6.6394   -3.5426    0.1257 H         1 ATP         0.3588
     43 H2         -5.4125   -0.9811    3.6517 H         1 ATP         0.0302
     44 H44        -6.5442   -2.2475    2.1195 H         1 ATP         0.4215
@<TRIPOS>BOND
     1    1    2 2
     2    1    3 1
     3    1    4 1
     4    1    8 1
     5    4   32 1
     6    5    6 2
     7    5    7 1
     8    5    8 1
     9    5   12 1
    10    9   10 2
    11    9   11 1
    12    9   12 1
    13    9   13 1
    14   13   14 1
    15   14   15 1
    16   14   33 1
    17   14   34 1
    18   15   16 1
    19   15   17 1
    20   15   35 1
    21   16   21 1
    22   17   18 1
    23   17   19 1
    24   17   36 1
    25   18   37 1
    26   19   20 1
    27   19   21 1
    28   19   38 1
    29   20   39 1
    30   21   22 1
    31   21   40 1
    32   22   23 ar
    33   22   31 ar
    34   23   24 ar
    35   23   41 1
    36   24   25 ar
    37   25   26 ar
    38   25   31 ar
    39   26   27 2
    40   26   28 ar
    41   27   42 1
    42   28   29 ar
    43   28   44 1
    44   29   30 ar
    45   29   43 1
    46   30   31 ar
@<TRIPOS>SUBSTRUCTURE
     1 ATP         1 GROUP 0 A     ****
@<TRIPOS>MOLECULE
[[[3,4-dihydroxy-5-(6-imino-1~{H}-purin-9-yl)tetrahydrofuran-2-yl]methoxy-oxido-phosphoryl]oxy-oxido-phosphoryl] hydrogen phosphate
   44    46     1     0     0
SMALL
USER_CHARGES

@<TRIPOS>ATOM
      1 PG         -5.8395    1.3700    0.0325 P.3       1 ATP         1.5257
      2 O1G        -7.1975    1.7115    0.6042 O.co2     1 ATP        -0.8737
      3 O2G        -4.7558    0.7766    0.9049 O.co2     1 ATP        -0.8737
      4 O3G        -6.0514    0.3995   -1.2632 O.3       1 ATP        -0.7971
      5 PB         -4.7646    4.1198   -0.1315 P.3       1 ATP         1.6824
      6 O1B        -4.1320    4.9266   -1.2434 O.co2     1 ATP        -0.8925
      7 O2B        -5.8860    4.6887    0.7089 O.co2     1 ATP        -0.8925
      8 O3B        -5.2419    2.6801   -0.7358 O.3       1 ATP        -0.8047
      9 PA         -2.5926    4.4187    1.8556 P.3       1 ATP         1.5908
     10 O1A        -3.4218    5.0536    2.9508 O.co2     1 ATP        -0.8932
     11 O2A        -1.6631    5.2564    1.0048 O.co2     1 ATP        -0.8932
     12 O3A        -3.5855    3.5838    0.8621 O.3       1 ATP        -0.8088
     13 O5'        -1.7336    3.1724    2.4750 O.3       1 ATP        -0.5646
     14 C5'        -0.8811    2.4285    1.6206 C.3       1 ATP         0.2204
     15 C4'        -0.1994    1.3333    2.4288 C.3       1 ATP         0.0965
     16 O4'        -1.1285    0.2356    2.5840 O.3       1 ATP        -0.3907
     17 C3'         1.0324    0.7610    1.7344 C.3       1 ATP         0.0763
     18 O3'         1.9175    0.2377    2.7247 O.3       1 ATP        -0.5884
     19 C2'         0.4468   -0.3802    0.9263 C.3       1 ATP         0.0784
     20 O2'         1.3993   -1.3703    0.5961 O.3       1 ATP        -0.6085
     21 C1'        -0.6159   -0.9100    1.8769 C.3       1 ATP         0.2186
     22 N9         -1.7127   -1.6108    1.2130 N.pl3     1 ATP        -0.1699
     23 C8         -3.0370   -1.2489    1.2455 C.ar      1 ATP         0.4438
     24 N7         -3.8008   -2.0709    0.5534 N.2       1 ATP        -0.6280
     25 C5         -2.9295   -2.9976    0.0567 C.ar      1 ATP         0.2109
     26 C6         -3.2152   -4.1411   -0.7786 C.ar      1 ATP         0.6180
     27 N6         -4.4238   -4.3865   -1.1456 N.2       1 ATP        -0.8319
     28 N1         -2.0349   -4.8186   -1.0521 N.pl3     1 ATP        -0.8664
     29 C2         -0.7728   -4.4501   -0.5916 C.ar      1 ATP         0.5952
     30 N3         -0.4885   -3.4234    0.1630 N.2       1 ATP        -0.5599
     31 C4         -1.6274   -2.7377    0.4492 C.ar      1 ATP         0.0076
     32 HOG3       -5.2576    0.0883   -1.7483 H         1 ATP         0.4101
     33 H5'1       -1.4800    1.9927    0.8146 H         1 ATP         0.0364
     34 H5'2       -0.1367    3.1040    1.1872 H         1 ATP         0.0364
     35 H4'         0.0403    1.7078    3.4343 H         1 ATP         0.0945
     36 H3'         1.5907    1.4859    1.1353 H         1 ATP         0.0703
     37 HO3'        2.6839   -0.1150    2.2479 H         1 ATP         0.4099
     38 H2'        -0.0017    0.0018    0.0005 H         1 ATP         0.0676
     39 HO2'        2.0953   -0.9375    0.0709 H         1 ATP         0.4291
     40 H1'        -0.1998   -1.6319    2.6178 H         1 ATP         0.0950
     41 H8         -3.3806   -0.3795    1.7893 H         1 ATP         0.1135
     42 HN62       -4.4384   -5.2300   -1.7295 H         1 ATP         0.3588
     43 H2          0.0180   -5.1355   -0.9348 H         1 ATP         0.0302
     44 H44        -2.0977   -5.6477   -1.6374 H         1 ATP         0.4215
@<TRIPOS>BOND
     1    1    2 2
     2    1    3 1
     3    1    4 1
     4    1    8 1
     5    4   32 1
     6    5    6 2
     7    5    7 1
     8    5    8 1
     9    5   12 1
    10    9   10 2
    11    9   11 1
    12    9   12 1
    13    9   13 1
    14   13   14 1
    15   14   15 1
    16   14   33 1
    17   14   34 1
    18   15   16 1
    19   15   17 1
    20   15   35 1
    21   16   21 1
    22   17   18 1
    23   17   19 1
    24   17   36 1
    25   18   37 1
    26   19   20 1
    27   19   21 1
    28   19   38 1
    29   20   39 1
    30   21   22 1
    31   21   40 1
    32   22   23 ar
    33   22   31 ar
    34   23   24 ar
    35   23   41 1
    36   24   25 ar
    37   25   26 ar
    38   25   31 ar
    39   26   27 2
    40   26   28 ar
    41   27   42 1
    42   28   29 ar
    43   28   44 1
    44   29   30 ar
    45   29   43 1
    46   30   31 ar
@<TRIPOS>SUBSTRUCTURE
     1 ATP         1 GROUP 0 A     ****
@<TRIPOS>MOLECULE
[[[3,4-dihydroxy-5-(6-imino-1~{H}-purin-9-yl)tetrahydrofuran-2-yl]methoxy-oxido-phosphoryl]oxy-oxido-phosphoryl] hydrogen phosphate
   44    46     1     0     0
SMALL
USER_CHARGES

@<TRIPOS>ATOM
      1 PG          2.0895    1.7251   -2.2906 P.3       1 ATP         1.5257
      2 O1G         1.2461    1.5309   -3.5309 O.co2     1 ATP        -0.8737
      3 O2G         1.6406    1.1816   -0.9524 O.co2     1 ATP        -0.8737
      4 O3G         3.5954    1.1727   -2.5956 O.3       1 ATP        -0.7971
      5 PB          1.4493    4.5708   -1.8053 P.3       1 ATP         1.6824
      6 O1B         2.2940    5.8068   -1.5903 O.co2     1 ATP        -0.8925
      7 O2B         0.3122    4.5628   -2.8025 O.co2     1 ATP        -0.8925
      8 O3B         2.4370    3.3114   -2.1276 O.3       1 ATP        -0.8047
      9 PA         -0.1844    4.7788    0.6530 P.3       1 ATP         1.5908
     10 O1A        -1.5385    4.8262   -0.0211 O.co2     1 ATP        -0.8932
     11 O2A         0.4501    6.0373    1.2036 O.co2     1 ATP        -0.8932
     12 O3A         0.8819    4.0669   -0.3600 O.3       1 ATP        -0.8088
     13 O5'        -0.2062    3.6557    1.8417 O.3       1 ATP        -0.5646
     14 C5'        -0.8811    2.4285    1.6206 C.3       1 ATP         0.2204
     15 C4'        -0.1994    1.3333    2.4288 C.3       1 ATP         0.0965
     16 O4'        -1.1285    0.2356    2.5840 O.3       1 ATP        -0.3907
     17 C3'         1.0324    0.7610    1.7344 C.3       1 ATP         0.0763
     18 O3'         1.9175    0.2377    2.7247 O.3       1 ATP        -0.5884
     19 C2'         0.4468   -0.3802    0.9263 C.3       1 ATP         0.0784
     20 O2'         1.3993   -1.3703    0.5961 O.3       1 ATP        -0.6085
     21 C1'        -0.6159   -0.9100    1.8769 C.3       1 ATP         0.2186
     22 N9         -1.7127   -1.6108    1.2130 N.pl3     1 ATP        -0.1699
     23 C8         -2.5485   -1.0808    0.2609 C.ar      1 ATP         0.4438
     24 N7         -3.4476   -1.9486   -0.1593 N.2       1 ATP        -0.6280
     25 C5         -3.1762   -3.0816    0.5530 C.ar      1 ATP         0.2109
     26 C6         -3.8510   -4.3579    0.5006 C.ar      1 ATP         0.6180
     27 N6         -4.8468   -4.5293   -0.2961 N.2       1 ATP        -0.8319
     28 N1         -3.2499   -5.2342    1.3937 N.pl3     1 ATP        -0.8664
     29 C2         -2.1646   -4.9275    2.2116 C.ar      1 ATP         0.5952
     30 N3         -1.5382   -3.7840    2.2778 N.2       1 ATP        -0.5599
     31 C4         -2.1054   -2.9018    1.4120 C.ar      1 ATP         0.0076
     32 HOG3        4.2668    1.2293   -1.8827 H         1 ATP         0.4101
     33 H5'1       -1.9256    2.5380    1.9293 H         1 ATP         0.0364
     34 H5'2       -0.8474    2.1930    0.5521 H         1 ATP         0.0364
     35 H4'         0.0403    1.7078    3.4343 H         1 ATP         0.0945
     36 H3'         1.5907    1.4859    1.1353 H         1 ATP         0.0703
     37 HO3'        2.1521    0.9800    3.3017 H         1 ATP         0.4099
     38 H2'        -0.0017    0.0018    0.0005 H         1 ATP         0.0676
     39 HO2'        0.9369   -2.0558    0.0825 H         1 ATP         0.4291
     40 H1'        -0.1998   -1.6319    2.6178 H         1 ATP         0.0950
     41 H8         -2.4515   -0.0599   -0.0829 H         1 ATP         0.1135
     42 HN62       -5.1990   -5.4882   -0.2005 H         1 ATP         0.3588
     43 H2         -1.8555   -5.7783    2.8388 H         1 ATP         0.0302
     44 H44        -3.6312   -6.1750    1.4526 H         1 ATP         0.4215
@<TRIPOS>BOND
     1    1    2 2
     2    1    3 1
     3    1    4 1
     4    1    8 1
     5    4   32 1
     6    5    6 2
     7    5    7 1
     8    5    8 1
     9    5   12 1
    10    9   10 2
    11    9   11 1
    12    9   12 1
    13    9   13 1
    14   13   14 1
    15   14   15 1
    16   14   33 1
    17   14   34 1
    18   15   16 1
    19   15   17 1
    20   15   35 1
    21   16   21 1
    22   17   18 1
    23   17   19 1
    24   17   36 1
    25   18   37 1
    26   19   20 1
    27   19   21 1
    28   19   38 1
    29   20   39 1
    30   21   22 1
    31   21   40 1
    32   22   23 ar
    33   22   31 ar
    34   23   24 ar
    35   23   41 1
    36   24   25 ar
    37   25   26 ar
    38   25   31 ar
    39   26   27 2
    40   26   28 ar
    41   27   42 1
    42   28   29 ar
    43   28   44 1
    44   29   30 ar
    45   29   43 1
    46   30   31 ar
@<TRIPOS>SUBSTRUCTURE
     1 ATP         1 GROUP 0 A     ****
@<TRIPOS>MOLECULE
[[[3,4-dihydroxy-5-(6-imino-1~{H}-purin-9-yl)tetrahydrofuran-2-yl]methoxy-oxido-phosphoryl]oxy-oxido-phosphoryl] hydrogen phosphate
   44    46     1     0     0
SMALL
USER_CHARGES

@<TRIPOS>ATOM
      1 PG          2.0895    1.7251   -2.2906 P.3       1 ATP         1.5257
      2 O1G         1.2461    1.5309   -3.5309 O.co2     1 ATP        -0.8737
      3 O2G         1.6406    1.1816   -0.9524 O.co2     1 ATP        -0.8737
      4 O3G         3.5954    1.1727   -2.5956 O.3       1 ATP        -0.7971
      5 PB          1.4493    4.5708   -1.8053 P.3       1 ATP         1.6824
      6 O1B         2.2940    5.8068   -1.5903 O.co2     1 ATP        -0.8925
      7 O2B         0.3122    4.5628   -2.8025 O.co2     1 ATP        -0.8925
      8 O3B         2.4370    3.3114   -2.1276 O.3       1 ATP        -0.8047
      9 PA         -0.1844    4.7788    0.6530 P.3       1 ATP         1.5908
     10 O1A        -1.5385    4.8262   -0.0211 O.co2     1 ATP        -0.8932
     11 O2A         0.4501    6.0373    1.2036 O.co2     1 ATP        -0.8932
     12 O3A         0.8819    4.0669   -0.3600 O.3       1 ATP        -0.8088
     13 O5'        -0.2062    3.6557    1.8417 O.3       1 ATP        -0.5646
     14 C5'        -0.8811    2.4285    1.6206 C.3       1 ATP         0.2204
     15 C4'        -0.1994    1.3333    2.4288 C.3       1 ATP         0.0965
     16 O4'        -1.1285    0.2356    2.5840 O.3       1 ATP        -0.3907
     17 C3'         1.0324    0.7610    1.7344 C.3       1 ATP         0.0763
     18 O3'         1.9175    0.2377    2.7247 O.3       1 ATP        -0.5884
     19 C2'         0.4468   -0.3802    0.9263 C.3       1 ATP         0.0784
     20 O2'         1.3993   -1.3703    0.5961 O.3       1 ATP        -0.6085
     21 C1'        -0.6159   -0.9100    1.8769 C.3       1 ATP         0.2186
     22 N9         -1.7127   -1.6108    1.2130 N.pl3     1 ATP        -0.1699
     23 C8         -1.7690   -2.9583    0.9549 C.ar      1 ATP         0.4438
     24 N7         -2.8827   -3.3076    0.3418 N.2       1 ATP        -0.6280
     25 C5         -3.5683   -2.1351    0.2017 C.ar      1 ATP         0.2109
     26 C6         -4.8617   -1.9185   -0.4044 C.ar      1 ATP         0.6180
     27 N6         -5.5166   -2.9094   -0.8993 N.2       1 ATP        -0.8319
     28 N1         -5.1837   -0.5701   -0.3344 N.pl3     1 ATP        -0.8664
     29 C2         -4.3821    0.4180    0.2330 C.ar      1 ATP         0.5952
     30 N3         -3.2117    0.2488    0.7860 N.2       1 ATP        -0.5599
     31 C4         -2.8672   -1.0657    0.7327 C.ar      1 ATP         0.0076
     32 HOG3        4.2668    1.2293   -1.8827 H         1 ATP         0.4101
     33 H5'1       -1.9256    2.5380    1.9293 H         1 ATP         0.0364
     34 H5'2       -0.8474    2.1930    0.5521 H         1 ATP         0.0364
     35 H4'         0.0403    1.7078    3.4343 H         1 ATP         0.0945
     36 H3'         1.5907    1.4859    1.1353 H         1 ATP         0.0703
     37 HO3'        2.1521    0.9800    3.3017 H         1 ATP         0.4099
     38 H2'        -0.0017    0.0018    0.0005 H         1 ATP         0.0676
     39 HO2'        0.9369   -2.0558    0.0825 H         1 ATP         0.4291
     40 H1'        -0.1998   -1.6319    2.6178 H         1 ATP         0.0950
     41 H8         -0.9697   -3.6300    1.2371 H         1 ATP         0.1135
     42 HN62       -6.4060   -2.5723   -1.2840 H         1 ATP         0.3588
     43 H2         -4.8409    1.4176    0.1757 H         1 ATP         0.0302
     44 H44        -6.0768   -0.2826   -0.7263 H         1 ATP         0.4215
@<TRIPOS>BOND
     1    1    2 2
     2    1    3 1
     3    1    4 1
     4    1    8 1
     5    4   32 1
     6    5    6 2
     7    5    7 1
     8    5    8 1
     9    5   12 1
    10    9   10 2
    11    9   11 1
    12    9   12 1
    13    9   13 1
    14   13   14 1
    15   14   15 1
    16   14   33 1
    17   14   34 1
    18   15   16 1
    19   15   17 1
    20   15   35 1
    21   16   21 1
    22   17   18 1
    23   17   19 1
    24   17   36 1
    25   18   37 1
    26   19   20 1
    27   19   21 1
    28   19   38 1
    29   20   39 1
    30   21   22 1
    31   21   40 1
    32   22   23 ar
    33   22   31 ar
    34   23   24 ar
    35   23   41 1
    36   24   25 ar
    37   25   26 ar
    38   25   31 ar
    39   26   27 2
    40   26   28 ar
    41   27   42 1
    42   28   29 ar
    43   28   44 1
    44   29   30 ar
    45   29   43 1
    46   30   31 ar
@<TRIPOS>SUBSTRUCTURE
     1 ATP         1 GROUP 0 A     ****
@<TRIPOS>MOLECULE
[[[3,4-dihydroxy-5-(6-imino-1~{H}-purin-9-yl)tetrahydrofuran-2-yl]methoxy-oxido-phosphoryl]oxy-oxido-phosphoryl] hydrogen phosphate
   44    46     1     0     0
SMALL
USER_CHARGES

@<TRIPOS>ATOM
      1 PG          1.8035    4.0841    5.4843 P.3       1 ATP         1.5257
      2 O1G         1.8932    4.9529    4.2497 O.co2     1 ATP        -0.8737
      3 O2G         2.2816    2.6493    5.4615 O.co2     1 ATP        -0.8737
      4 O3G         2.5430    4.8574    6.7176 O.3       1 ATP        -0.7971
      5 PB         -1.1019    3.5424    5.3899 P.3       1 ATP         1.6824
      6 O1B        -0.8949    2.0854    5.0410 O.co2     1 ATP        -0.8925
      7 O2B        -2.2727    3.9860    6.2384 O.co2     1 ATP        -0.8925
      8 O3B         0.2734    4.1228    6.0511 O.3       1 ATP        -0.8047
      9 PA         -2.1561    4.4278    2.7707 P.3       1 ATP         1.5908
     10 O1A        -1.6129    5.3161    1.6725 O.co2     1 ATP        -0.8932
     11 O2A        -3.5422    4.6538    3.3340 O.co2     1 ATP        -0.8932
     12 O3A        -1.0930    4.4169    4.0115 O.3       1 ATP        -0.8088
     13 O5'        -2.0401    2.8620    2.3128 O.3       1 ATP        -0.5646
     14 C5'        -0.8811    2.4285    1.6206 C.3       1 ATP         0.2204
     15 C4'        -0.1994    1.3333    2.4288 C.3       1 ATP         0.0965
     16 O4'        -1.1285    0.2356    2.5840 O.3       1 ATP        -0.3907
     17 C3'         1.0324    0.7610    1.7344 C.3       1 ATP         0.0763
     18 O3'         1.9175    0.2377    2.7247 O.3       1 ATP        -0.5884
     19 C2'         0.4468   -0.3802    0.9263 C.3       1 ATP         0.0784
     20 O2'         1.3993   -1.3703    0.5961 O.3       1 ATP        -0.6085
     21 C1'        -0.6159   -0.9100    1.8769 C.3       1 ATP         0.2186
     22 N9         -1.7127   -1.6108    1.2130 N.pl3     1 ATP        -0.1699
     23 C8         -2.8662   -1.0361    0.7388 C.ar      1 ATP         0.4438
     24 N7         -3.6774   -1.9166    0.1867 N.2       1 ATP        -0.6280
     25 C5         -3.0159   -3.1045    0.3122 C.ar      1 ATP         0.2109
     26 C6         -3.4377   -4.4169   -0.1199 C.ar      1 ATP         0.6180
     27 N6         -4.5720   -4.5691   -0.7080 N.2       1 ATP        -0.8319
     28 N1         -2.4600   -5.3463    0.2071 N.pl3     1 ATP        -0.8664
     29 C2         -1.2595   -5.0554    0.8515 C.ar      1 ATP         0.5952
     30 N3         -0.8555   -3.8803    1.2516 N.2       1 ATP        -0.5599
     31 C4         -1.7946   -2.9457    0.9448 C.ar      1 ATP         0.0076
     32 HOG3        2.5696    4.4190    7.5947 H         1 ATP         0.4101
     33 H5'1       -1.1767    2.0502    0.6368 H         1 ATP         0.0364
     34 H5'2       -0.2080    3.2814    1.4876 H         1 ATP         0.0364
     35 H4'         0.0403    1.7078    3.4343 H         1 ATP         0.0945
     36 H3'         1.5907    1.4859    1.1353 H         1 ATP         0.0703
     37 HO3'        2.6839   -0.1150    2.2479 H         1 ATP         0.4099
     38 H2'        -0.0017    0.0018    0.0005 H         1 ATP         0.0676
     39 HO2'        2.0953   -0.9375    0.0709 H         1 ATP         0.4291
     40 H1'        -0.1998   -1.6319    2.6178 H         1 ATP         0.0950
     41 H8         -3.0558    0.0252    0.8256 H         1 ATP         0.1135
     42 HN62       -4.7047   -5.5592   -0.9421 H         1 ATP         0.3588
     43 H2         -0.6372   -5.9505    1.0077 H         1 ATP         0.0302
     44 H44        -2.6338   -6.3155   -0.0469 H         1 ATP         0.4215
@<TRIPOS>BOND
     1    1    2 2
     2    1    3 1
     3    1    4 1
     4    1    8 1
     5    4   32 1
     6    5    6 2
     7    5    7 1
     8    5    8 1
     9    5   12 1
    10    9   10 2
    11    9   11 1
    12    9   12 1
    13    9   13 1
    14   13   14 1
    15   14   15 1
    16   14   33 1
    17   14   34 1
    18   15   16 1
    19   15   17 1
    20   15   35 1
    21   16   21 1
    22   17   18 1
    23   17   19 1
    24   17   36 1
    25   18   37 1
    26   19   20 1
    27   19   21 1
    28   19   38 1
    29   20   39 1
    30   21   22 1
    31   21   40 1
    32   22   23 ar
    33   22   31 ar
    34   23   24 ar
    35   23   41 1
    36   24   25 ar
    37   25   26 ar
    38   25   31 ar
    39   26   27 2
    40   26   28 ar
    41   27   42 1
    42   28   29 ar
    43   28   44 1
    44   29   30 ar
    45   29   43 1
    46   30   31 ar
@<TRIPOS>SUBSTRUCTURE
     1 ATP         1 GROUP 0 A     ****
@<TRIPOS>MOLECULE
[[[3,4-dihydroxy-5-(6-imino-1~{H}-purin-9-yl)tetrahydrofuran-2-yl]methoxy-oxido-phosphoryl]oxy-oxido-phosphoryl] hydrogen phosphate
   44    46     1     0     0
SMALL
USER_CHARGES

@<TRIPOS>ATOM
      1 PG          1.8035    4.0841    5.4843 P.3       1 ATP         1.5257
      2 O1G         1.8932    4.9529    4.2497 O.co2     1 ATP        -0.8737
      3 O2G         2.2816    2.6493    5.4615 O.co2     1 ATP        -0.8737
      4 O3G         2.5430    4.8574    6.7176 O.3       1 ATP        -0.7971
      5 PB         -1.1019    3.5424    5.3899 P.3       1 ATP         1.6824
      6 O1B        -0.8949    2.0854    5.0410 O.co2     1 ATP        -0.8925
      7 O2B        -2.2727    3.9860    6.2384 O.co2     1 ATP        -0.8925
      8 O3B         0.2734    4.1228    6.0511 O.3       1 ATP        -0.8047
      9 PA         -2.1561    4.4278    2.7707 P.3       1 ATP         1.5908
     10 O1A        -1.6129    5.3161    1.6725 O.co2     1 ATP        -0.8932
     11 O2A        -3.5422    4.6538    3.3340 O.co2     1 ATP        -0.8932
     12 O3A        -1.0930    4.4169    4.0115 O.3       1 ATP        -0.8088
     13 O5'        -2.0401    2.8620    2.3128 O.3       1 ATP        -0.5646
     14 C5'        -0.8811    2.4285    1.6206 C.3       1 ATP         0.2204
     15 C4'        -0.1994    1.3333    2.4288 C.3       1 ATP         0.0965
     16 O4'        -1.1285    0.2356    2.5840 O.3       1 ATP        -0.3907
     17 C3'         1.0324    0.7610    1.7344 C.3       1 ATP         0.0763
     18 O3'         1.9175    0.2377    2.7247 O.3       1 ATP        -0.5884
     19 C2'         0.4468   -0.3802    0.9263 C.3       1 ATP         0.0784
     20 O2'         1.3993   -1.3703    0.5961 O.3       1 ATP        -0.6085
     21 C1'        -0.6159   -0.9100    1.8769 C.3       1 ATP         0.2186
     22 N9         -1.7127   -1.6108    1.2130 N.pl3     1 ATP        -0.1699
     23 C8         -1.7690   -2.9583    0.9549 C.ar      1 ATP         0.4438
     24 N7         -2.8827   -3.3076    0.3418 N.2       1 ATP        -0.6280
     25 C5         -3.5683   -2.1351    0.2017 C.ar      1 ATP         0.2109
     26 C6         -4.8617   -1.9185   -0.4044 C.ar      1 ATP         0.6180
     27 N6         -5.5166   -2.9094   -0.8993 N.2       1 ATP        -0.8319
     28 N1         -5.1837   -0.5701   -0.3344 N.pl3     1 ATP        -0.8664
     29 C2         -4.3821    0.4180    0.2330 C.ar      1 ATP         0.5952
     30 N3         -3.2117    0.2488    0.7860 N.2       1 ATP        -0.5599
     31 C4         -2.8672   -1.0657    0.7327 C.ar      1 ATP         0.0076
     32 HOG3        2.5696    4.4190    7.5947 H         1 ATP         0.4101
     33 H5'1       -1.1767    2.0502    0.6368 H         1 ATP         0.0364
     34 H5'2       -0.2080    3.2814    1.4876 H         1 ATP         0.0364
     35 H4'         0.0403    1.7078    3.4343 H         1 ATP         0.0945
     36 H3'         1.5907    1.4859    1.1353 H         1 ATP         0.0703
     37 HO3'        2.6839   -0.1150    2.2479 H         1 ATP         0.4099
     38 H2'        -0.0017    0.0018    0.0005 H         1 ATP         0.0676
     39 HO2'        2.0953   -0.9375    0.0709 H         1 ATP         0.4291
     40 H1'        -0.1998   -1.6319    2.6178 H         1 ATP         0.0950
     41 H8         -0.9697   -3.6300    1.2371 H         1 ATP         0.1135
     42 HN62       -6.4060   -2.5723   -1.2840 H         1 ATP         0.3588
     43 H2         -4.8409    1.4176    0.1757 H         1 ATP         0.0302
     44 H44        -6.0768   -0.2826   -0.7263 H         1 ATP         0.4215
@<TRIPOS>BOND
     1    1    2 2
     2    1    3 1
     3    1    4 1
     4    1    8 1
     5    4   32 1
     6    5    6 2
     7    5    7 1
     8    5    8 1
     9    5   12 1
    10    9   10 2
    11    9   11 1
    12    9   12 1
    13    9   13 1
    14   13   14 1
    15   14   15 1
    16   14   33 1
    17   14   34 1
    18   15   16 1
    19   15   17 1
    20   15   35 1
    21   16   21 1
    22   17   18 1
    23   17   19 1
    24   17   36 1
    25   18   37 1
    26   19   20 1
    27   19   21 1
    28   19   38 1
    29   20   39 1
    30   21   22 1
    31   21   40 1
    32   22   23 ar
    33   22   31 ar
    34   23   24 ar
    35   23   41 1
    36   24   25 ar
    37   25   26 ar
    38   25   31 ar
    39   26   27 2
    40   26   28 ar
    41   27   42 1
    42   28   29 ar
    43   28   44 1
    44   29   30 ar
    45   29   43 1
    46   30   31 ar
@<TRIPOS>SUBSTRUCTURE
     1 ATP         1 GROUP 0 A     ****
@<TRIPOS>MOLECULE
[[[3,4-dihydroxy-5-(6-imino-1~{H}-purin-9-yl)tetrahydrofuran-2-yl]methoxy-oxido-phosphoryl]oxy-oxido-phosphoryl] hydrogen phosphate
   44    46     1     0     0
SMALL
USER_CHARGES

@<TRIPOS>ATOM
      1 PG          3.1526    4.5024   -5.2915 P.3       1 ATP         1.5257
      2 O1G         3.4374    5.9344   -5.6861 O.co2     1 ATP        -0.8737
      3 O2G         1.7405    4.0401   -5.0089 O.co2     1 ATP        -0.8737
      4 O3G         3.8062    3.5149   -6.4156 O.3       1 ATP        -0.7971
      5 PB          4.0939    4.6573   -2.4926 P.3       1 ATP         1.6824
      6 O1B         4.5119    6.1108   -2.5015 O.co2     1 ATP        -0.8925
      7 O2B         2.8110    4.2152   -1.8247 O.co2     1 ATP        -0.8925
      8 O3B         4.1037    4.1006   -4.0274 O.3       1 ATP        -0.8047
      9 PA          5.9684    3.7219   -0.4031 P.3       1 ATP         1.5908
     10 O1A         6.3633    5.1276   -0.0051 O.co2     1 ATP        -0.8932
     11 O2A         6.9719    2.5908   -0.3452 O.co2     1 ATP        -0.8932
     12 O3A         5.3259    3.7621   -1.9049 O.3       1 ATP        -0.8088
     13 O5'         4.6405    3.2699    0.4378 O.3       1 ATP        -0.5646
     14 C5'         4.0922    1.9801    0.2227 C.3       1 ATP         0.2204
     15 C4'         2.5944    2.0310    0.4653 C.3       1 ATP         0.0965
     16 O4'         1.9327    2.5740   -0.6889 O.3       1 ATP        -0.3907
     17 C3'         1.9685    0.6634    0.6767 C.3       1 ATP         0.0763
     18 O3'         2.1425    0.1975    1.9977 O.3       1 ATP        -0.5884
     19 C2'         0.5176    0.9128    0.3099 C.3       1 ATP         0.0784
     20 O2'        -0.2103    1.4454    1.4152 O.3       1 ATP        -0.6085
     21 C1'         0.6219    1.9765   -0.7844 C.3       1 ATP         0.2186
     22 N9          0.4237    1.4496   -2.1357 N.pl3     1 ATP        -0.1699
     23 C8          1.4069    0.9710   -2.9662 C.ar      1 ATP         0.4438
     24 N7          0.9316    0.5623   -4.1260 N.2       1 ATP        -0.6280
     25 C5         -0.4120    0.7884   -4.0344 C.ar      1 ATP         0.2109
     26 C6         -1.4353    0.5283   -5.0204 C.ar      1 ATP         0.6180
     27 N6         -1.1199    0.0176   -6.1586 N.2       1 ATP        -0.8319
     28 N1         -2.6704    0.9095   -4.5147 N.pl3     1 ATP        -0.8664
     29 C2         -2.8863    1.4571   -3.2520 C.ar      1 ATP         0.5952
     30 N3         -1.9805    1.7017   -2.3442 N.2       1 ATP        -0.5599
     31 C4         -0.7561    1.3381   -2.8112 C.ar      1 ATP         0.0076
     32 HOG3        3.7061    2.5458   -6.3007 H         1 ATP         0.4101
     33 H5'1        4.3028    1.6728   -0.8066 H         1 ATP         0.0364
     34 H5'2        4.5677    1.2738    0.9106 H         1 ATP         0.0364
     35 H4'         2.3752    2.7029    1.3156 H         1 ATP         0.0945
     36 H3'         2.4336   -0.1217   -0.0015 H         1 ATP         0.0703
     37 HO3'        1.7160   -0.6716    2.0397 H         1 ATP         0.4099
     38 H2'         0.0316    0.0155   -0.0339 H         1 ATP         0.0676
     39 HO2'       -0.1608    0.7921    2.1351 H         1 ATP         0.4291
     40 H1'        -0.1474    2.7798   -0.6651 H         1 ATP         0.0950
     41 H8          2.4466    0.9468   -2.6694 H         1 ATP         0.1135
     42 HN62       -1.9661   -0.0965   -6.7275 H         1 ATP         0.3588
     43 H2         -3.9481    1.6825   -3.0660 H         1 ATP         0.0302
     44 H44        -3.4814    0.7753   -5.1133 H         1 ATP         0.4215
@<TRIPOS>BOND
     1    1    2 2
     2    1    3 1
     3    1    4 1
     4    1    8 1
     5    4   32 1
     6    5    6 2
     7    5    7 1
     8    5    8 1
     9    5   12 1
    10    9   10 2
    11    9   11 1
    12    9   12 1
    13    9   13 1
    14   13   14 1
    15   14   15 1
    16   14   33 1
    17   14   34 1
    18   15   16 1
    19   15   17 1
    20   15   35 1
    21   16   21 1
    22   17   18 1
    23   17   19 1
    24   17   36 1
    25   18   37 1
    26   19   20 1
    27   19   21 1
    28   19   38 1
    29   20   39 1
    30   21   22 1
    31   21   40 1
    32   22   23 ar
    33   22   31 ar
    34   23   24 ar
    35   23   41 1
    36   24   25 ar
    37   25   26 ar
    38   25   31 ar
    39   26   27 2
    40   26   28 ar
    41   27   42 1
    42   28   29 ar
    43   28   44 1
    44   29   30 ar
    45   29   43 1
    46   30   31 ar
@<TRIPOS>SUBSTRUCTURE
     1 ATP         1 GROUP 0 A     ****
@<TRIPOS>MOLECULE
[[[3,4-dihydroxy-5-(6-imino-1~{H}-purin-9-yl)tetrahydrofuran-2-yl]methoxy-oxido-phosphoryl]oxy-oxido-phosphoryl] hydrogen phosphate
   44    46     1     0     0
SMALL
USER_CHARGES

@<TRIPOS>ATOM
      1 PG         -6.3882    0.7432    0.2776 P.3       1 ATP         1.5257
      2 O1G        -5.9359    1.8104   -0.6940 O.co2     1 ATP        -0.8737
      3 O2G        -7.6477    0.9205    1.0960 O.co2     1 ATP        -0.8737
      4 O3G        -6.4843   -0.6779   -0.5206 O.3       1 ATP        -0.7971
      5 PB         -4.4313    1.2933    2.4252 P.3       1 ATP         1.6824
      6 O1B        -5.4939    1.8286    3.3590 O.co2     1 ATP        -0.8925
      7 O2B        -3.2276    0.5460    2.9544 O.co2     1 ATP        -0.8925
      8 O3B        -5.1527    0.3798    1.2803 O.3       1 ATP        -0.8047
      9 PA         -3.0798    3.8627    1.8536 P.3       1 ATP         1.5908
     10 O1A        -3.8220    4.5968    2.9492 O.co2     1 ATP        -0.8932
     11 O2A        -2.6995    4.5681    0.5701 O.co2     1 ATP        -0.8932
     12 O3A        -3.9133    2.5109    1.4692 O.3       1 ATP        -0.8088
     13 O5'        -1.7336    3.1724    2.4750 O.3       1 ATP        -0.5646
     14 C5'        -0.8811    2.4285    1.6206 C.3       1 ATP         0.2204
     15 C4'        -0.1994    1.3333    2.4288 C.3       1 ATP         0.0965
     16 O4'        -1.1285    0.2356    2.5840 O.3       1 ATP        -0.3907
     17 C3'         1.0324    0.7610    1.7344 C.3       1 ATP         0.0763
     18 O3'         1.9175    0.2377    2.7247 O.3       1 ATP        -0.5884
     19 C2'         0.4468   -0.3802    0.9263 C.3       1 ATP         0.0784
     20 O2'         1.3993   -1.3703    0.5961 O.3       1 ATP        -0.6085
     21 C1'        -0.6159   -0.9100    1.8769 C.3       1 ATP         0.2186
     22 N9         -1.7127   -1.6108    1.2130 N.pl3     1 ATP        -0.1699
     23 C8         -2.5485   -1.0808    0.2609 C.ar      1 ATP         0.4438
     24 N7         -3.4476   -1.9486   -0.1593 N.2       1 ATP        -0.6280
     25 C5         -3.1762   -3.0816    0.5530 C.ar      1 ATP         0.2109
     26 C6         -3.8510   -4.3579    0.5006 C.ar      1 ATP         0.6180
     27 N6         -4.8468   -4.5293   -0.2961 N.2       1 ATP        -0.8319
     28 N1         -3.2499   -5.2342    1.3937 N.pl3     1 ATP        -0.8664
     29 C2         -2.1646   -4.9275    2.2116 C.ar      1 ATP         0.5952
     30 N3         -1.5382   -3.7840    2.2778 N.2       1 ATP        -0.5599
     31 C4         -2.1054   -2.9018    1.4120 C.ar      1 ATP         0.0076
     32 HOG3       -6.7669   -1.4747   -0.0230 H         1 ATP         0.4101
     33 H5'1       -1.4800    1.9927    0.8146 H         1 ATP         0.0364
     34 H5'2       -0.1367    3.1040    1.1872 H         1 ATP         0.0364
     35 H4'         0.0403    1.7078    3.4343 H         1 ATP         0.0945
     36 H3'         1.5907    1.4859    1.1353 H         1 ATP         0.0703
     37 HO3'        2.6839   -0.1150    2.2479 H         1 ATP         0.4099
     38 H2'        -0.0017    0.0018    0.0005 H         1 ATP         0.0676
     39 HO2'        2.0953   -0.9375    0.0709 H         1 ATP         0.4291
     40 H1'        -0.1998   -1.6319    2.6178 H         1 ATP         0.0950
     41 H8         -2.4515   -0.0599   -0.0829 H         1 ATP         0.1135
     42 HN62       -5.1990   -5.4882   -0.2005 H         1 ATP         0.3588
     43 H2         -1.8555   -5.7783    2.8388 H         1 ATP         0.0302
     44 H44        -3.6312   -6.1750    1.4526 H         1 ATP         0.4215
@<TRIPOS>BOND
     1    1    2 2
     2    1    3 1
     3    1    4 1
     4    1    8 1
     5    4   32 1
     6    5    6 2
     7    5    7 1
     8    5    8 1
     9    5   12 1
    10    9   10 2
    11    9   11 1
    12    9   12 1
    13    9   13 1
    14   13   14 1
    15   14   15 1
    16   14   33 1
    17   14   34 1
    18   15   16 1
    19   15   17 1
    20   15   35 1
    21   16   21 1
    22   17   18 1
    23   17   19 1
    24   17   36 1
    25   18   37 1
    26   19   20 1
    27   19   21 1
    28   19   38 1
    29   20   39 1
    30   21   22 1
    31   21   40 1
    32   22   23 ar
    33   22   31 ar
    34   23   24 ar
    35   23   41 1
    36   24   25 ar
    37   25   26 ar
    38   25   31 ar
    39   26   27 2
    40   26   28 ar
    41   27   42 1
    42   28   29 ar
    43   28   44 1
    44   29   30 ar
    45   29   43 1
    46   30   31 ar
@<TRIPOS>SUBSTRUCTURE
     1 ATP         1 GROUP 0 A     ****
@<TRIPOS>MOLECULE
[[[3,4-dihydroxy-5-(6-imino-1~{H}-purin-9-yl)tetrahydrofuran-2-yl]methoxy-oxido-phosphoryl]oxy-oxido-phosphoryl] hydrogen phosphate
   44    46     1     0     0
SMALL
USER_CHARGES

@<TRIPOS>ATOM
      1 PG          0.9904    3.7496    7.4690 P.3       1 ATP         1.5257
      2 O1G         1.4844    2.3213    7.4099 O.co2     1 ATP        -0.8737
      3 O2G         0.1079    4.2205    8.6035 O.co2     1 ATP        -0.8737
      4 O3G         2.2779    4.7483    7.3648 O.3       1 ATP        -0.7971
      5 PB         -1.1019    3.5424    5.3899 P.3       1 ATP         1.6824
      6 O1B        -0.8949    2.0854    5.0410 O.co2     1 ATP        -0.8925
      7 O2B        -2.2727    3.9860    6.2384 O.co2     1 ATP        -0.8925
      8 O3B         0.2734    4.1228    6.0511 O.3       1 ATP        -0.8047
      9 PA         -2.1561    4.4278    2.7707 P.3       1 ATP         1.5908
     10 O1A        -1.6129    5.3161    1.6725 O.co2     1 ATP        -0.8932
     11 O2A        -3.5422    4.6538    3.3340 O.co2     1 ATP        -0.8932
     12 O3A        -1.0930    4.4169    4.0115 O.3       1 ATP        -0.8088
     13 O5'        -2.0401    2.8620    2.3128 O.3       1 ATP        -0.5646
     14 C5'        -0.8811    2.4285    1.6206 C.3       1 ATP         0.2204
     15 C4'        -0.1994    1.3333    2.4288 C.3       1 ATP         0.0965
     16 O4'        -1.1285    0.2356    2.5840 O.3       1 ATP        -0.3907
     17 C3'         1.0324    0.7610    1.7344 C.3       1 ATP         0.0763
     18 O3'         1.9175    0.2377    2.7247 O.3       1 ATP        -0.5884
     19 C2'         0.4468   -0.3802    0.9263 C.3       1 ATP         0.0784
     20 O2'         1.3993   -1.3703    0.5961 O.3       1 ATP        -0.6085
     21 C1'        -0.6159   -0.9100    1.8769 C.3       1 ATP         0.2186
     22 N9         -1.7127   -1.6108    1.2130 N.pl3     1 ATP        -0.1699
     23 C8         -2.5485   -1.0808    0.2609 C.ar      1 ATP         0.4438
     24 N7         -3.4476   -1.9486   -0.1593 N.2       1 ATP        -0.6280
     25 C5         -3.1762   -3.0816    0.5530 C.ar      1 ATP         0.2109
     26 C6         -3.8510   -4.3579    0.5006 C.ar      1 ATP         0.6180
     27 N6         -4.8468   -4.5293   -0.2961 N.2       1 ATP        -0.8319
     28 N1         -3.2499   -5.2342    1.3937 N.pl3     1 ATP        -0.8664
     29 C2         -2.1646   -4.9275    2.2116 C.ar      1 ATP         0.5952
     30 N3         -1.5382   -3.7840    2.2778 N.2       1 ATP        -0.5599
     31 C4         -2.1054   -2.9018    1.4120 C.ar      1 ATP         0.0076
     32 HOG3        2.1210    5.7164    7.3890 H         1 ATP         0.4101
     33 H5'1       -1.1767    2.0502    0.6368 H         1 ATP         0.0364
     34 H5'2       -0.2080    3.2814    1.4876 H         1 ATP         0.0364
     35 H4'         0.0403    1.7078    3.4343 H         1 ATP         0.0945
     36 H3'         1.5907    1.4859    1.1353 H         1 ATP         0.0703
     37 HO3'        2.6839   -0.1150    2.2479 H         1 ATP         0.4099
     38 H2'        -0.0017    0.0018    0.0005 H         1 ATP         0.0676
     39 HO2'        0.9369   -2.0558    0.0825 H         1 ATP         0.4291
     40 H1'        -0.1998   -1.6319    2.6178 H         1 ATP         0.0950
     41 H8         -2.4515   -0.0599   -0.0829 H         1 ATP         0.1135
     42 HN62       -5.1990   -5.4882   -0.2005 H         1 ATP         0.3588
     43 H2         -1.8555   -5.7783    2.8388 H         1 ATP         0.0302
     44 H44        -3.6312   -6.1750    1.4526 H         1 ATP         0.4215
@<TRIPOS>BOND
     1    1    2 2
     2    1    3 1
     3    1    4 1
     4    1    8 1
     5    4   32 1
     6    5    6 2
     7    5    7 1
     8    5    8 1
     9    5   12 1
    10    9   10 2
    11    9   11 1
    12    9   12 1
    13    9   13 1
    14   13   14 1
    15   14   15 1
    16   14   33 1
    17   14   34 1
    18   15   16 1
    19   15   17 1
    20   15   35 1
    21   16   21 1
    22   17   18 1
    23   17   19 1
    24   17   36 1
    25   18   37 1
    26   19   20 1
    27   19   21 1
    28   19   38 1
    29   20   39 1
    30   21   22 1
    31   21   40 1
    32   22   23 ar
    33   22   31 ar
    34   23   24 ar
    35   23   41 1
    36   24   25 ar
    37   25   26 ar
    38   25   31 ar
    39   26   27 2
    40   26   28 ar
    41   27   42 1
    42   28   29 ar
    43   28   44 1
    44   29   30 ar
    45   29   43 1
    46   30   31 ar
@<TRIPOS>SUBSTRUCTURE
     1 ATP         1 GROUP 0 A     ****
@<TRIPOS>MOLECULE
[[[3,4-dihydroxy-5-(6-imino-1~{H}-purin-9-yl)tetrahydrofuran-2-yl]methoxy-oxido-phosphoryl]oxy-oxido-phosphoryl] hydrogen phosphate
   44    46     1     0     0
SMALL
USER_CHARGES

@<TRIPOS>ATOM
      1 PG         -6.7929    0.4872    0.2102 P.3       1 ATP         1.5257
      2 O1G        -6.9679    0.5732   -1.2896 O.co2     1 ATP        -0.8737
      3 O2G        -7.9551    0.7413    1.1443 O.co2     1 ATP        -0.8737
      4 O3G        -6.1435   -0.9661    0.5741 O.3       1 ATP        -0.7971
      5 PB         -5.3893    3.0598    0.6038 P.3       1 ATP         1.6824
      6 O1B        -5.3676    3.5002   -0.8429 O.co2     1 ATP        -0.8925
      7 O2B        -6.3583    3.6678    1.5933 O.co2     1 ATP        -0.8925
      8 O3B        -5.5405    1.4350    0.6541 O.3       1 ATP        -0.8047
      9 PA         -3.2890    2.7005    2.6567 P.3       1 ATP         1.5908
     10 O1A        -3.3524    1.1904    2.7326 O.co2     1 ATP        -0.8932
     11 O2A        -3.9196    3.5563    3.7336 O.co2     1 ATP        -0.8932
     12 O3A        -3.8782    3.1790    1.2098 O.3       1 ATP        -0.8088
     13 O5'        -1.7336    3.1724    2.4750 O.3       1 ATP        -0.5646
     14 C5'        -0.8811    2.4285    1.6206 C.3       1 ATP         0.2204
     15 C4'        -0.1994    1.3333    2.4288 C.3       1 ATP         0.0965
     16 O4'        -1.1285    0.2356    2.5840 O.3       1 ATP        -0.3907
     17 C3'         1.0324    0.7610    1.7344 C.3       1 ATP         0.0763
     18 O3'         1.9175    0.2377    2.7247 O.3       1 ATP        -0.5884
     19 C2'         0.4468   -0.3802    0.9263 C.3       1 ATP         0.0784
     20 O2'         1.3993   -1.3703    0.5961 O.3       1 ATP        -0.6085
     21 C1'        -0.6159   -0.9100    1.8769 C.3       1 ATP         0.2186
     22 N9         -1.7127   -1.6108    1.2130 N.pl3     1 ATP        -0.1699
     23 C8         -2.0868   -2.9137    1.4327 C.ar      1 ATP         0.4438
     24 N7         -3.1125   -3.2756    0.6878 N.2       1 ATP        -0.6280
     25 C5         -3.4079   -2.1580   -0.0391 C.ar      1 ATP         0.2109
     26 C6         -4.4483   -1.9775   -1.0249 C.ar      1 ATP         0.6180
     27 N6         -5.2418   -2.9492   -1.3113 N.2       1 ATP        -0.8319
     28 N1         -4.3937   -0.6823   -1.5211 N.pl3     1 ATP        -0.8664
     29 C2         -3.4770    0.2901   -1.1271 C.ar      1 ATP         0.5952
     30 N3         -2.5289    0.1525   -0.2402 N.2       1 ATP        -0.5599
     31 C4         -2.5564   -1.1096    0.2655 C.ar      1 ATP         0.0076
     32 HOG3       -5.9675   -1.1762    1.5160 H         1 ATP         0.4101
     33 H5'1       -1.4800    1.9927    0.8146 H         1 ATP         0.0364
     34 H5'2       -0.1367    3.1040    1.1872 H         1 ATP         0.0364
     35 H4'         0.0403    1.7078    3.4343 H         1 ATP         0.0945
     36 H3'         1.5907    1.4859    1.1353 H         1 ATP         0.0703
     37 HO3'        2.6839   -0.1150    2.2479 H         1 ATP         0.4099
     38 H2'        -0.0017    0.0018    0.0005 H         1 ATP         0.0676
     39 HO2'        2.0953   -0.9375    0.0709 H         1 ATP         0.4291
     40 H1'        -0.1998   -1.6319    2.6178 H         1 ATP         0.0950
     41 H8         -1.5740   -3.5449    2.1457 H         1 ATP         0.1135
     42 HN62       -5.9117   -2.6433   -2.0256 H         1 ATP         0.3588
     43 H2         -3.6225    1.2454   -1.6553 H         1 ATP         0.0302
     44 H44        -5.0794   -0.4231   -2.2258 H         1 ATP         0.4215
@<TRIPOS>BOND
     1    1    2 2
     2    1    3 1
     3    1    4 1
     4    1    8 1
     5    4   32 1
     6    5    6 2
     7    5    7 1
     8    5    8 1
     9    5   12 1
    10    9   10 2
    11    9   11 1
    12    9   12 1
    13    9   13 1
    14   13   14 1
    15   14   15 1
    16   14   33 1
    17   14   34 1
    18   15   16 1
    19   15   17 1
    20   15   35 1
    21   16   21 1
    22   17   18 1
    23   17   19 1
    24   17   36 1
    25   18   37 1
    26   19   20 1
    27   19   21 1
    28   19   38 1
    29   20   39 1
    30   21   22 1
    31   21   40 1
    32   22   23 ar
    33   22   31 ar
    34   23   24 ar
    35   23   41 1
    36   24   25 ar
    37   25   26 ar
    38   25   31 ar
    39   26   27 2
    40   26   28 ar
    41   27   42 1
    42   28   29 ar
    43   28   44 1
    44   29   30 ar
    45   29   43 1
    46   30   31 ar
@<TRIPOS>SUBSTRUCTURE
     1 ATP         1 GROUP 0 A     ****
@<TRIPOS>MOLECULE
[[[3,4-dihydroxy-5-(6-imino-1~{H}-purin-9-yl)tetrahydrofuran-2-yl]methoxy-oxido-phosphoryl]oxy-oxido-phosphoryl] hydrogen phosphate
   44    46     1     0     0
SMALL
USER_CHARGES

@<TRIPOS>ATOM
      1 PG          1.9459    5.5019    4.9600 P.3       1 ATP         1.5257
      2 O1G         0.6169    4.9562    4.4874 O.co2     1 ATP        -0.8737
      3 O2G         2.1580    6.9893    5.1336 O.co2     1 ATP        -0.8737
      4 O3G         2.3467    4.7548    6.3555 O.3       1 ATP        -0.7971
      5 PB          3.4426    5.1736    2.4310 P.3       1 ATP         1.6824
      6 O1B         2.3205    4.5793    1.6093 O.co2     1 ATP        -0.8925
      7 O2B         3.8616    6.6164    2.2570 O.co2     1 ATP        -0.8925
      8 O3B         3.1326    4.9055    4.0114 O.3       1 ATP        -0.8047
      9 PA          5.6979    3.9301    0.9743 P.3       1 ATP         1.5908
     10 O1A         6.7120    2.8652    1.3318 O.co2     1 ATP        -0.8932
     11 O2A         6.1406    5.2577    0.3987 O.co2     1 ATP        -0.8932
     12 O3A         4.7614    4.2234    2.2806 O.3       1 ATP        -0.8088
     13 O5'         4.5670    3.2937   -0.0211 O.3       1 ATP        -0.5646
     14 C5'         4.0922    1.9801    0.2227 C.3       1 ATP         0.2204
     15 C4'         2.5944    2.0310    0.4653 C.3       1 ATP         0.0965
     16 O4'         1.9327    2.5740   -0.6889 O.3       1 ATP        -0.3907
     17 C3'         1.9685    0.6634    0.6767 C.3       1 ATP         0.0763
     18 O3'         2.1425    0.1975    1.9977 O.3       1 ATP        -0.5884
     19 C2'         0.5176    0.9128    0.3099 C.3       1 ATP         0.0784
     20 O2'        -0.2103    1.4454    1.4152 O.3       1 ATP        -0.6085
     21 C1'         0.6219    1.9765   -0.7844 C.3       1 ATP         0.2186
     22 N9          0.4237    1.4496   -2.1357 N.pl3     1 ATP        -0.1699
     23 C8          1.4069    0.9710   -2.9662 C.ar      1 ATP         0.4438
     24 N7          0.9316    0.5623   -4.1260 N.2       1 ATP        -0.6280
     25 C5         -0.4120    0.7884   -4.0344 C.ar      1 ATP         0.2109
     26 C6         -1.4353    0.5283   -5.0204 C.ar      1 ATP         0.6180
     27 N6         -1.1199    0.0176   -6.1586 N.2       1 ATP        -0.8319
     28 N1         -2.6704    0.9095   -4.5147 N.pl3     1 ATP        -0.8664
     29 C2         -2.8863    1.4571   -3.2520 C.ar      1 ATP         0.5952
     30 N3         -1.9805    1.7017   -2.3442 N.2       1 ATP        -0.5599
     31 C4         -0.7561    1.3381   -2.8112 C.ar      1 ATP         0.0076
     32 HOG3        3.1898    5.0017    6.7918 H         1 ATP         0.4101
     33 H5'1        4.3179    1.3548   -0.6470 H         1 ATP         0.0364
     34 H5'2        4.6083    1.5737    1.0983 H         1 ATP         0.0364
     35 H4'         2.3752    2.7029    1.3156 H         1 ATP         0.0945
     36 H3'         2.4336   -0.1217   -0.0015 H         1 ATP         0.0703
     37 HO3'        3.0987    0.1465    2.1461 H         1 ATP         0.4099
     38 H2'         0.0316    0.0155   -0.0339 H         1 ATP         0.0676
     39 HO2'       -0.1608    0.7921    2.1351 H         1 ATP         0.4291
     40 H1'        -0.1474    2.7798   -0.6651 H         1 ATP         0.0950
     41 H8          2.4466    0.9468   -2.6694 H         1 ATP         0.1135
     42 HN62       -1.9661   -0.0965   -6.7275 H         1 ATP         0.3588
     43 H2         -3.9481    1.6825   -3.0660 H         1 ATP         0.0302
     44 H44        -3.4814    0.7753   -5.1133 H         1 ATP         0.4215
@<TRIPOS>BOND
     1    1    2 2
     2    1    3 1
     3    1    4 1
     4    1    8 1
     5    4   32 1
     6    5    6 2
     7    5    7 1
     8    5    8 1
     9    5   12 1
    10    9   10 2
    11    9   11 1
    12    9   12 1
    13    9   13 1
    14   13   14 1
    15   14   15 1
    16   14   33 1
    17   14   34 1
    18   15   16 1
    19   15   17 1
    20   15   35 1
    21   16   21 1
    22   17   18 1
    23   17   19 1
    24   17   36 1
    25   18   37 1
    26   19   20 1
    27   19   21 1
    28   19   38 1
    29   20   39 1
    30   21   22 1
    31   21   40 1
    32   22   23 ar
    33   22   31 ar
    34   23   24 ar
    35   23   41 1
    36   24   25 ar
    37   25   26 ar
    38   25   31 ar
    39   26   27 2
    40   26   28 ar
    41   27   42 1
    42   28   29 ar
    43   28   44 1
    44   29   30 ar
    45   29   43 1
    46   30   31 ar
@<TRIPOS>SUBSTRUCTURE
     1 ATP         1 GROUP 0 A     ****
@<TRIPOS>MOLECULE
[[[3,4-dihydroxy-5-(6-imino-1~{H}-purin-9-yl)tetrahydrofuran-2-yl]methoxy-oxido-phosphoryl]oxy-oxido-phosphoryl] hydrogen phosphate
   44    46     1     0     0
SMALL
USER_CHARGES

@<TRIPOS>ATOM
      1 PG         -7.6828    3.7147    0.9752 P.3       1 ATP         1.5257
      2 O1G        -8.4591    2.5635    1.5747 O.co2     1 ATP        -0.8737
      3 O2G        -7.9633    4.1921   -0.4323 O.co2     1 ATP        -0.8737
      4 O3G        -7.7864    4.9925    1.9864 O.3       1 ATP        -0.7971
      5 PB         -5.1692    2.2616    0.4146 P.3       1 ATP         1.6824
      6 O1B        -5.5974    0.9095    0.9399 O.co2     1 ATP        -0.8925
      7 O2B        -5.1034    2.5401   -1.0705 O.co2     1 ATP        -0.8925
      8 O3B        -6.0857    3.4124    1.1228 O.3       1 ATP        -0.8047
      9 PA         -3.2890    2.7005    2.6567 P.3       1 ATP         1.5908
     10 O1A        -3.3276    1.2949    3.2163 O.co2     1 ATP        -0.8932
     11 O2A        -4.0474    3.8228    3.3313 O.co2     1 ATP        -0.8932
     12 O3A        -3.7331    2.6526    1.0850 O.3       1 ATP        -0.8088
     13 O5'        -1.7336    3.1724    2.4750 O.3       1 ATP        -0.5646
     14 C5'        -0.8811    2.4285    1.6206 C.3       1 ATP         0.2204
     15 C4'        -0.1994    1.3333    2.4288 C.3       1 ATP         0.0965
     16 O4'        -1.1285    0.2356    2.5840 O.3       1 ATP        -0.3907
     17 C3'         1.0324    0.7610    1.7344 C.3       1 ATP         0.0763
     18 O3'         1.9175    0.2377    2.7247 O.3       1 ATP        -0.5884
     19 C2'         0.4468   -0.3802    0.9263 C.3       1 ATP         0.0784
     20 O2'         1.3993   -1.3703    0.5961 O.3       1 ATP        -0.6085
     21 C1'        -0.6159   -0.9100    1.8769 C.3       1 ATP         0.2186
     22 N9         -1.7127   -1.6108    1.2130 N.pl3     1 ATP        -0.1699
     23 C8         -2.0868   -2.9137    1.4327 C.ar      1 ATP         0.4438
     24 N7         -3.1125   -3.2756    0.6878 N.2       1 ATP        -0.6280
     25 C5         -3.4079   -2.1580   -0.0391 C.ar      1 ATP         0.2109
     26 C6         -4.4483   -1.9775   -1.0249 C.ar      1 ATP         0.6180
     27 N6         -5.2418   -2.9492   -1.3113 N.2       1 ATP        -0.8319
     28 N1         -4.3937   -0.6823   -1.5211 N.pl3     1 ATP        -0.8664
     29 C2         -3.4770    0.2901   -1.1271 C.ar      1 ATP         0.5952
     30 N3         -2.5289    0.1525   -0.2402 N.2       1 ATP        -0.5599
     31 C4         -2.5564   -1.1096    0.2655 C.ar      1 ATP         0.0076
     32 HOG3       -7.3307    5.8243    1.7359 H         1 ATP         0.4101
     33 H5'1       -1.4800    1.9927    0.8146 H         1 ATP         0.0364
     34 H5'2       -0.1367    3.1040    1.1872 H         1 ATP         0.0364
     35 H4'         0.0403    1.7078    3.4343 H         1 ATP         0.0945
     36 H3'         1.5907    1.4859    1.1353 H         1 ATP         0.0703
     37 HO3'        2.6839   -0.1150    2.2479 H         1 ATP         0.4099
     38 H2'        -0.0017    0.0018    0.0005 H         1 ATP         0.0676
     39 HO2'        2.0953   -0.9375    0.0709 H         1 ATP         0.4291
     40 H1'        -0.1998   -1.6319    2.6178 H         1 ATP         0.0950
     41 H8         -1.5740   -3.5449    2.1457 H         1 ATP         0.1135
     42 HN62       -5.9117   -2.6433   -2.0256 H         1 ATP         0.3588
     43 H2         -3.6225    1.2454   -1.6553 H         1 ATP         0.0302
     44 H44        -5.0794   -0.4231   -2.2258 H         1 ATP         0.4215
@<TRIPOS>BOND
     1    1    2 2
     2    1    3 1
     3    1    4 1
     4    1    8 1
     5    4   32 1
     6    5    6 2
     7    5    7 1
     8    5    8 1
     9    5   12 1
    10    9   10 2
    11    9   11 1
    12    9   12 1
    13    9   13 1
    14   13   14 1
    15   14   15 1
    16   14   33 1
    17   14   34 1
    18   15   16 1
    19   15   17 1
    20   15   35 1
    21   16   21 1
    22   17   18 1
    23   17   19 1
    24   17   36 1
    25   18   37 1
    26   19   20 1
    27   19   21 1
    28   19   38 1
    29   20   39 1
    30   21   22 1
    31   21   40 1
    32   22   23 ar
    33   22   31 ar
    34   23   24 ar
    35   23   41 1
    36   24   25 ar
    37   25   26 ar
    38   25   31 ar
    39   26   27 2
    40   26   28 ar
    41   27   42 1
    42   28   29 ar
    43   28   44 1
    44   29   30 ar
    45   29   43 1
    46   30   31 ar
@<TRIPOS>SUBSTRUCTURE
     1 ATP         1 GROUP 0 A     ****
@<TRIPOS>MOLECULE
[[[3,4-dihydroxy-5-(6-imino-1~{H}-purin-9-yl)tetrahydrofuran-2-yl]methoxy-oxido-phosphoryl]oxy-oxido-phosphoryl] hydrogen phosphate
   44    46     1     0     0
SMALL
USER_CHARGES

@<TRIPOS>ATOM
      1 PG          0.0709    5.4026   -0.3638 P.3       1 ATP         1.5257
      2 O1G        -0.0572    6.8901   -0.1218 O.co2     1 ATP        -0.8737
      3 O2G         0.6680    4.4928    0.6867 O.co2     1 ATP        -0.8737
      4 O3G        -1.3943    4.8174   -0.7842 O.3       1 ATP        -0.7971
      5 PB          2.3936    5.4869   -2.1917 P.3       1 ATP         1.6824
      6 O1B         2.6594    4.9137   -3.5659 O.co2     1 ATP        -0.8925
      7 O2B         2.6822    6.9383   -1.8791 O.co2     1 ATP        -0.8925
      8 O3B         0.8485    5.1596   -1.7780 O.3       1 ATP        -0.8047
      9 PA          4.7368    4.3145   -0.8169 P.3       1 ATP         1.5908
     10 O1A         5.3515    5.6144   -0.3450 O.co2     1 ATP        -0.8932
     11 O2A         5.3105    3.5740   -2.0052 O.co2     1 ATP        -0.8932
     12 O3A         3.1422    4.5531   -1.0815 O.3       1 ATP        -0.8088
     13 O5'         4.6405    3.2699    0.4378 O.3       1 ATP        -0.5646
     14 C5'         4.0922    1.9801    0.2227 C.3       1 ATP         0.2204
     15 C4'         2.5944    2.0310    0.4653 C.3       1 ATP         0.0965
     16 O4'         1.9327    2.5740   -0.6889 O.3       1 ATP        -0.3907
     17 C3'         1.9685    0.6634    0.6767 C.3       1 ATP         0.0763
     18 O3'         2.1425    0.1975    1.9977 O.3       1 ATP        -0.5884
     19 C2'         0.5176    0.9128    0.3099 C.3       1 ATP         0.0784
     20 O2'        -0.2103    1.4454    1.4152 O.3       1 ATP        -0.6085
     21 C1'         0.6219    1.9765   -0.7844 C.3       1 ATP         0.2186
     22 N9          0.4237    1.4496   -2.1357 N.pl3     1 ATP        -0.1699
     23 C8          1.4069    0.9710   -2.9662 C.ar      1 ATP         0.4438
     24 N7          0.9316    0.5623   -4.1260 N.2       1 ATP        -0.6280
     25 C5         -0.4120    0.7884   -4.0344 C.ar      1 ATP         0.2109
     26 C6         -1.4353    0.5283   -5.0204 C.ar      1 ATP         0.6180
     27 N6         -1.1199    0.0176   -6.1586 N.2       1 ATP        -0.8319
     28 N1         -2.6704    0.9095   -4.5147 N.pl3     1 ATP        -0.8664
     29 C2         -2.8863    1.4571   -3.2520 C.ar      1 ATP         0.5952
     30 N3         -1.9805    1.7017   -2.3442 N.2       1 ATP        -0.5599
     31 C4         -0.7561    1.3381   -2.8112 C.ar      1 ATP         0.0076
     32 HOG3       -1.4768    3.8589   -0.9755 H         1 ATP         0.4101
     33 H5'1        4.3028    1.6728   -0.8066 H         1 ATP         0.0364
     34 H5'2        4.5677    1.2738    0.9106 H         1 ATP         0.0364
     35 H4'         2.3752    2.7029    1.3156 H         1 ATP         0.0945
     36 H3'         2.4336   -0.1217   -0.0015 H         1 ATP         0.0703
     37 HO3'        1.7160   -0.6716    2.0397 H         1 ATP         0.4099
     38 H2'         0.0316    0.0155   -0.0339 H         1 ATP         0.0676
     39 HO2'       -1.1270    1.5823    1.1180 H         1 ATP         0.4291
     40 H1'        -0.1474    2.7798   -0.6651 H         1 ATP         0.0950
     41 H8          2.4466    0.9468   -2.6694 H         1 ATP         0.1135
     42 HN62       -1.9661   -0.0965   -6.7275 H         1 ATP         0.3588
     43 H2         -3.9481    1.6825   -3.0660 H         1 ATP         0.0302
     44 H44        -3.4814    0.7753   -5.1133 H         1 ATP         0.4215
@<TRIPOS>BOND
     1    1    2 2
     2    1    3 1
     3    1    4 1
     4    1    8 1
     5    4   32 1
     6    5    6 2
     7    5    7 1
     8    5    8 1
     9    5   12 1
    10    9   10 2
    11    9   11 1
    12    9   12 1
    13    9   13 1
    14   13   14 1
    15   14   15 1
    16   14   33 1
    17   14   34 1
    18   15   16 1
    19   15   17 1
    20   15   35 1
    21   16   21 1
    22   17   18 1
    23   17   19 1
    24   17   36 1
    25   18   37 1
    26   19   20 1
    27   19   21 1
    28   19   38 1
    29   20   39 1
    30   21   22 1
    31   21   40 1
    32   22   23 ar
    33   22   31 ar
    34   23   24 ar
    35   23   41 1
    36   24   25 ar
    37   25   26 ar
    38   25   31 ar
    39   26   27 2
    40   26   28 ar
    41   27   42 1
    42   28   29 ar
    43   28   44 1
    44   29   30 ar
    45   29   43 1
    46   30   31 ar
@<TRIPOS>SUBSTRUCTURE
     1 ATP         1 GROUP 0 A     ****
