@<TRIPOS>MOLECULE
[[[3,4-dihydroxy-5-(6-imino-7,8-dihydro-1~{H}-purin-8-ylium-9-yl)tetrahydrofuran-2-yl]methoxy-oxido-phosphoryl]oxy-hydroxy-phosphoryl] hydrogen phosphate
   46    48     1     0     0
SMALL
USER_CHARGES

@<TRIPOS>ATOM
      1 PG          2.0779    6.3002   -1.4350 P.3       1 ATP         1.5595
      2 O1G         2.3936    6.4343    0.0381 O.co2     1 ATP        -0.8438
      3 O2G         0.7752    6.8200   -2.0008 O.co2     1 ATP        -0.8438
      4 O3G         3.3094    6.9472   -2.2899 O.3       1 ATP        -0.7800
      5 PB          2.2098    4.0482   -3.3347 P.3       1 ATP         1.9223
      6 O1B         0.9112    4.2052   -4.0691 O.2       1 ATP        -0.8953
      7 O2B         3.5036    4.6512   -4.0935 O.3       1 ATP        -0.8165
      8 O3B         2.2644    4.7408   -1.8752 O.3       1 ATP        -0.8247
      9 PA          2.9230    1.2546   -3.9578 P.3       1 ATP         1.6157
     10 O1A         4.1492    1.5455   -4.7953 O.co2     1 ATP        -0.8629
     11 O2A         1.6175    0.8553   -4.6106 O.co2     1 ATP        -0.8629
     12 O3A         2.6378    2.5313   -2.9807 O.3       1 ATP        -0.8191
     13 O5'         3.2903    0.1346   -2.8241 O.3       1 ATP        -0.5644
     14 C5'         2.2816   -0.2918   -1.9206 C.3       1 ATP         0.2062
     15 C4'         2.7248    0.0226   -0.4980 C.3       1 ATP         0.0971
     16 O4'         2.4697    1.4219   -0.2462 O.3       1 ATP        -0.3662
     17 C3'         1.9404   -0.7419    0.5596 C.3       1 ATP         0.0734
     18 O3'         2.7418   -0.8086    1.7389 O.3       1 ATP        -0.5671
     19 C2'         0.7477    0.1630    0.7858 C.3       1 ATP         0.0745
     20 O2'         0.1373   -0.0577    2.0407 O.3       1 ATP        -0.5794
     21 C1'         1.3733    1.5427    0.6747 C.3       1 ATP         0.3824
     22 N9          0.4520    2.5240    0.1767 N.pl3     1 ATP        -0.4324
     23 C8         -0.2004    2.4829   -0.9804 C.ar      1 ATP         0.2662
     24 N7         -0.9830    3.5431   -1.1568 N.pl3     1 ATP        -0.4772
     25 C5         -0.8095    4.3012   -0.0331 C.ar      1 ATP        -0.1305
     26 C6         -1.4065    5.5904    0.3585 C.ar      1 ATP         0.7186
     27 N6         -2.2501    6.2030   -0.4084 N.2       1 ATP        -0.8115
     28 N1         -0.9585    6.0272    1.5994 N.pl3     1 ATP        -0.8400
     29 C2         -0.0508    5.3009    2.3532 C.ar      1 ATP         0.6671
     30 N3          0.4890    4.1592    2.0257 N.2       1 ATP        -0.5806
     31 C4          0.0637    3.7006    0.7995 C.ar      1 ATP         0.2748
     32 HOG3        3.2537    6.9371   -3.2692 H         1 ATP         0.4327
     33 HOB2        3.7435    4.2976   -4.9765 H         1 ATP         0.4701
     34 H5'1        1.3514    0.2330   -2.1577 H         1 ATP         0.0401
     35 H5'2        2.1280   -1.3678   -2.0460 H         1 ATP         0.0401
     36 H4'         3.8044   -0.1397   -0.4040 H         1 ATP         0.1136
     37 H3'         1.6764   -1.7639    0.2728 H         1 ATP         0.0693
     38 HO3'        2.2232   -1.2979    2.3953 H         1 ATP         0.4124
     39 H2'        -0.0011    0.0027    0.0003 H         1 ATP         0.0854
     40 HO2'       -0.6141    0.5574    2.1082 H         1 ATP         0.4367
     41 H1'         1.7826    1.9024    1.6451 H         1 ATP         0.1343
     42 H8         -0.1116    1.6863   -1.6984 H         1 ATP         0.3302
     43 HN62       -2.5420    7.0730    0.0447 H         1 ATP         0.4160
     44 H2          0.1969    5.7893    3.3086 H         1 ATP         0.0756
     45 H45        -1.3097    6.9080    1.9642 H         1 ATP         0.4587
     46 H46        -1.5735    3.7351   -1.9538 H         1 ATP         0.5254
@<TRIPOS>BOND
     1    1    2 2
     2    1    3 1
     3    1    4 1
     4    1    8 1
     5    4   32 1
     6    5    6 2
     7    5    7 1
     8    5    8 1
     9    5   12 1
    10    7   33 1
    11    9   10 2
    12    9   11 1
    13    9   12 1
    14    9   13 1
    15   13   14 1
    16   14   15 1
    17   14   34 1
    18   14   35 1
    19   15   16 1
    20   15   17 1
    21   15   36 1
    22   16   21 1
    23   17   18 1
    24   17   19 1
    25   17   37 1
    26   18   38 1
    27   19   20 1
    28   19   21 1
    29   19   39 1
    30   20   40 1
    31   21   22 1
    32   21   41 1
    33   22   23 ar
    34   22   31 ar
    35   23   24 ar
    36   23   42 1
    37   24   25 ar
    38   24   46 1
    39   25   26 ar
    40   25   31 ar
    41   26   27 2
    42   26   28 ar
    43   27   43 1
    44   28   29 ar
    45   28   45 1
    46   29   30 ar
    47   29   44 1
    48   30   31 ar
@<TRIPOS>SUBSTRUCTURE
     1 ATP         1 GROUP 0 A     ****
@<TRIPOS>MOLECULE
[[[3,4-dihydroxy-5-(6-imino-7,8-dihydro-1~{H}-purin-8-ylium-9-yl)tetrahydrofuran-2-yl]methoxy-oxido-phosphoryl]oxy-hydroxy-phosphoryl] hydrogen phosphate
   46    48     1     0     0
SMALL
USER_CHARGES

@<TRIPOS>ATOM
      1 PG         -2.0832    1.3493   -3.8719 P.3       1 ATP         1.5595
      2 O1G        -3.1679    2.3850   -3.6757 O.co2     1 ATP        -0.8438
      3 O2G        -1.2958    0.8165   -2.6956 O.co2     1 ATP        -0.8438
      4 O3G        -2.7159    0.0844   -4.6878 O.3       1 ATP        -0.7800
      5 PB          0.2024    1.1404   -5.7240 P.3       1 ATP         1.9223
      6 O1B        -0.1444   -0.1073   -6.4811 O.2       1 ATP        -0.8953
      7 O2B         0.8895    2.3084   -6.6057 O.3       1 ATP        -0.8165
      8 O3B        -1.0438    1.8823   -5.0102 O.3       1 ATP        -0.8247
      9 PA          2.7406    0.3767   -4.4296 P.3       1 ATP         1.6157
     10 O1A         3.6419    1.3302   -5.1835 O.co2     1 ATP        -0.8629
     11 O2A         2.7082   -1.0955   -4.7781 O.co2     1 ATP        -0.8629
     12 O3A         1.2118    0.9483   -4.4776 O.3       1 ATP        -0.8191
     13 O5'         3.0213    0.5153   -2.8245 O.3       1 ATP        -0.5644
     14 C5'         2.2816   -0.2918   -1.9206 C.3       1 ATP         0.2062
     15 C4'         2.7248    0.0226   -0.4980 C.3       1 ATP         0.0971
     16 O4'         2.4697    1.4219   -0.2462 O.3       1 ATP        -0.3662
     17 C3'         1.9404   -0.7419    0.5596 C.3       1 ATP         0.0734
     18 O3'         2.7418   -0.8086    1.7389 O.3       1 ATP        -0.5671
     19 C2'         0.7477    0.1630    0.7858 C.3       1 ATP         0.0745
     20 O2'         0.1373   -0.0577    2.0407 O.3       1 ATP        -0.5794
     21 C1'         1.3733    1.5427    0.6747 C.3       1 ATP         0.3824
     22 N9          0.4520    2.5240    0.1767 N.pl3     1 ATP        -0.4324
     23 C8          0.2216    2.8192   -1.0985 C.ar      1 ATP         0.2662
     24 N7         -0.6906    3.7763   -1.2384 N.pl3     1 ATP        -0.4772
     25 C5         -1.0575    4.1037    0.0366 C.ar      1 ATP        -0.1305
     26 C6         -2.0291    5.0943    0.5330 C.ar      1 ATP         0.7186
     27 N6         -2.7093    5.8371   -0.2800 N.2       1 ATP        -0.8115
     28 N1         -2.1051    5.1136    1.9204 N.pl3     1 ATP        -0.8400
     29 C2         -1.3354    4.2774    2.7129 C.ar      1 ATP         0.6671
     30 N3         -0.4707    3.3945    2.2944 N.2       1 ATP        -0.5806
     31 C4         -0.3734    3.3525    0.9220 C.ar      1 ATP         0.2748
     32 HOG3       -2.1324   -0.6764   -4.8948 H         1 ATP         0.4327
     33 HOB2        1.7387    2.1225   -7.0601 H         1 ATP         0.4701
     34 H5'1        1.2163   -0.0770   -2.0471 H         1 ATP         0.0401
     35 H5'2        2.4655   -1.3443   -2.1563 H         1 ATP         0.0401
     36 H4'         3.8044   -0.1397   -0.4040 H         1 ATP         0.1136
     37 H3'         1.6764   -1.7639    0.2728 H         1 ATP         0.0693
     38 HO3'        2.2232   -1.2979    2.3953 H         1 ATP         0.4124
     39 H2'        -0.0011    0.0027    0.0003 H         1 ATP         0.0854
     40 HO2'       -0.6141    0.5574    2.1082 H         1 ATP         0.4367
     41 H1'         1.7826    1.9024    1.6451 H         1 ATP         0.1343
     42 H8          0.7125    2.3429   -1.9292 H         1 ATP         0.3302
     43 HN62       -3.3217    6.4517    0.2629 H         1 ATP         0.4160
     44 H2         -1.5188    4.4223    3.7890 H         1 ATP         0.0756
     45 H45        -2.7470    5.7627    2.3665 H         1 ATP         0.4587
     46 H46        -1.0305    4.1680   -2.1054 H         1 ATP         0.5254
@<TRIPOS>BOND
     1    1    2 2
     2    1    3 1
     3    1    4 1
     4    1    8 1
     5    4   32 1
     6    5    6 2
     7    5    7 1
     8    5    8 1
     9    5   12 1
    10    7   33 1
    11    9   10 2
    12    9   11 1
    13    9   12 1
    14    9   13 1
    15   13   14 1
    16   14   15 1
    17   14   34 1
    18   14   35 1
    19   15   16 1
    20   15   17 1
    21   15   36 1
    22   16   21 1
    23   17   18 1
    24   17   19 1
    25   17   37 1
    26   18   38 1
    27   19   20 1
    28   19   21 1
    29   19   39 1
    30   20   40 1
    31   21   22 1
    32   21   41 1
    33   22   23 ar
    34   22   31 ar
    35   23   24 ar
    36   23   42 1
    37   24   25 ar
    38   24   46 1
    39   25   26 ar
    40   25   31 ar
    41   26   27 2
    42   26   28 ar
    43   27   43 1
    44   28   29 ar
    45   28   45 1
    46   29   30 ar
    47   29   44 1
    48   30   31 ar
@<TRIPOS>SUBSTRUCTURE
     1 ATP         1 GROUP 0 A     ****
@<TRIPOS>MOLECULE
[[[3,4-dihydroxy-5-(6-imino-7,8-dihydro-1~{H}-purin-8-ylium-9-yl)tetrahydrofuran-2-yl]methoxy-oxido-phosphoryl]oxy-hydroxy-phosphoryl] hydrogen phosphate
   46    48     1     0     0
SMALL
USER_CHARGES

@<TRIPOS>ATOM
      1 PG         -0.3854    4.9028   -4.4448 P.3       1 ATP         1.5595
      2 O1G        -0.6500    5.8700   -3.3125 O.co2     1 ATP        -0.8438
      3 O2G        -1.5214    4.1661   -5.1188 O.co2     1 ATP        -0.8438
      4 O3G         0.4856    5.6729   -5.5913 O.3       1 ATP        -0.7800
      5 PB          2.2098    4.0482   -3.3347 P.3       1 ATP         1.9223
      6 O1B         3.1673    4.8107   -4.2019 O.2       1 ATP        -0.8953
      7 O2B         1.9107    4.7154   -1.8928 O.3       1 ATP        -0.8165
      8 O3B         0.7385    3.8226   -3.9650 O.3       1 ATP        -0.8247
      9 PA          2.9230    1.2546   -3.9578 P.3       1 ATP         1.6157
     10 O1A         4.1492    1.5455   -4.7953 O.co2     1 ATP        -0.8629
     11 O2A         1.6175    0.8553   -4.6106 O.co2     1 ATP        -0.8629
     12 O3A         2.6378    2.5313   -2.9807 O.3       1 ATP        -0.8191
     13 O5'         3.2903    0.1346   -2.8241 O.3       1 ATP        -0.5644
     14 C5'         2.2816   -0.2918   -1.9206 C.3       1 ATP         0.2062
     15 C4'         2.7248    0.0226   -0.4980 C.3       1 ATP         0.0971
     16 O4'         2.4697    1.4219   -0.2462 O.3       1 ATP        -0.3662
     17 C3'         1.9404   -0.7419    0.5596 C.3       1 ATP         0.0734
     18 O3'         2.7418   -0.8086    1.7389 O.3       1 ATP        -0.5671
     19 C2'         0.7477    0.1630    0.7858 C.3       1 ATP         0.0745
     20 O2'         0.1373   -0.0577    2.0407 O.3       1 ATP        -0.5794
     21 C1'         1.3733    1.5427    0.6747 C.3       1 ATP         0.3824
     22 N9          0.4520    2.5240    0.1767 N.pl3     1 ATP        -0.4324
     23 C8         -0.2004    2.4829   -0.9804 C.ar      1 ATP         0.2662
     24 N7         -0.9830    3.5431   -1.1568 N.pl3     1 ATP        -0.4772
     25 C5         -0.8095    4.3012   -0.0331 C.ar      1 ATP        -0.1305
     26 C6         -1.4065    5.5904    0.3585 C.ar      1 ATP         0.7186
     27 N6         -2.2501    6.2030   -0.4084 N.2       1 ATP        -0.8115
     28 N1         -0.9585    6.0272    1.5994 N.pl3     1 ATP        -0.8400
     29 C2         -0.0508    5.3009    2.3532 C.ar      1 ATP         0.6671
     30 N3          0.4890    4.1592    2.0257 N.2       1 ATP        -0.5806
     31 C4          0.0637    3.7006    0.7995 C.ar      1 ATP         0.2748
     32 HOG3        0.7397    5.1750   -6.3974 H         1 ATP         0.4327
     33 HOB2        1.5202    5.6145   -1.8579 H         1 ATP         0.4701
     34 H5'1        1.3514    0.2330   -2.1577 H         1 ATP         0.0401
     35 H5'2        2.1280   -1.3678   -2.0460 H         1 ATP         0.0401
     36 H4'         3.8044   -0.1397   -0.4040 H         1 ATP         0.1136
     37 H3'         1.6764   -1.7639    0.2728 H         1 ATP         0.0693
     38 HO3'        2.2232   -1.2979    2.3953 H         1 ATP         0.4124
     39 H2'        -0.0011    0.0027    0.0003 H         1 ATP         0.0854
     40 HO2'       -0.6141    0.5574    2.1082 H         1 ATP         0.4367
     41 H1'         1.7826    1.9024    1.6451 H         1 ATP         0.1343
     42 H8         -0.1116    1.6863   -1.6984 H         1 ATP         0.3302
     43 HN62       -2.5420    7.0730    0.0447 H         1 ATP         0.4160
     44 H2          0.1969    5.7893    3.3086 H         1 ATP         0.0756
     45 H45        -1.3097    6.9080    1.9642 H         1 ATP         0.4587
     46 H46        -1.5735    3.7351   -1.9538 H         1 ATP         0.5254
@<TRIPOS>BOND
     1    1    2 2
     2    1    3 1
     3    1    4 1
     4    1    8 1
     5    4   32 1
     6    5    6 2
     7    5    7 1
     8    5    8 1
     9    5   12 1
    10    7   33 1
    11    9   10 2
    12    9   11 1
    13    9   12 1
    14    9   13 1
    15   13   14 1
    16   14   15 1
    17   14   34 1
    18   14   35 1
    19   15   16 1
    20   15   17 1
    21   15   36 1
    22   16   21 1
    23   17   18 1
    24   17   19 1
    25   17   37 1
    26   18   38 1
    27   19   20 1
    28   19   21 1
    29   19   39 1
    30   20   40 1
    31   21   22 1
    32   21   41 1
    33   22   23 ar
    34   22   31 ar
    35   23   24 ar
    36   23   42 1
    37   24   25 ar
    38   24   46 1
    39   25   26 ar
    40   25   31 ar
    41   26   27 2
    42   26   28 ar
    43   27   43 1
    44   28   29 ar
    45   28   45 1
    46   29   30 ar
    47   29   44 1
    48   30   31 ar
@<TRIPOS>SUBSTRUCTURE
     1 ATP         1 GROUP 0 A     ****
@<TRIPOS>MOLECULE
[[[3,4-dihydroxy-5-(6-imino-7,8-dihydro-1~{H}-purin-8-ylium-9-yl)tetrahydrofuran-2-yl]methoxy-oxido-phosphoryl]oxy-hydroxy-phosphoryl] hydrogen phosphate
   46    48     1     0     0
SMALL
USER_CHARGES

@<TRIPOS>ATOM
      1 PG         -2.4054    2.5156   -5.6464 P.3       1 ATP         1.5595
      2 O1G        -3.2528    1.3941   -6.2049 O.co2     1 ATP        -0.8438
      3 O2G        -2.0422    3.7124   -6.4969 O.co2     1 ATP        -0.8438
      4 O3G        -3.0971    3.0504   -4.2674 O.3       1 ATP        -0.7800
      5 PB          0.2024    1.1404   -5.7240 P.3       1 ATP         1.9223
      6 O1B        -0.1444   -0.1073   -6.4811 O.2       1 ATP        -0.8953
      7 O2B         0.8895    2.3084   -6.6057 O.3       1 ATP        -0.8165
      8 O3B        -1.0438    1.8823   -5.0102 O.3       1 ATP        -0.8247
      9 PA          2.7406    0.3767   -4.4296 P.3       1 ATP         1.6157
     10 O1A         3.6419    1.3302   -5.1835 O.co2     1 ATP        -0.8629
     11 O2A         2.7082   -1.0955   -4.7781 O.co2     1 ATP        -0.8629
     12 O3A         1.2118    0.9483   -4.4776 O.3       1 ATP        -0.8191
     13 O5'         3.0213    0.5153   -2.8245 O.3       1 ATP        -0.5644
     14 C5'         2.2816   -0.2918   -1.9206 C.3       1 ATP         0.2062
     15 C4'         2.7248    0.0226   -0.4980 C.3       1 ATP         0.0971
     16 O4'         2.4697    1.4219   -0.2462 O.3       1 ATP        -0.3662
     17 C3'         1.9404   -0.7419    0.5596 C.3       1 ATP         0.0734
     18 O3'         2.7418   -0.8086    1.7389 O.3       1 ATP        -0.5671
     19 C2'         0.7477    0.1630    0.7858 C.3       1 ATP         0.0745
     20 O2'         0.1373   -0.0577    2.0407 O.3       1 ATP        -0.5794
     21 C1'         1.3733    1.5427    0.6747 C.3       1 ATP         0.3824
     22 N9          0.4520    2.5240    0.1767 N.pl3     1 ATP        -0.4324
     23 C8          0.2216    2.8192   -1.0985 C.ar      1 ATP         0.2662
     24 N7         -0.6906    3.7763   -1.2384 N.pl3     1 ATP        -0.4772
     25 C5         -1.0575    4.1037    0.0366 C.ar      1 ATP        -0.1305
     26 C6         -2.0291    5.0943    0.5330 C.ar      1 ATP         0.7186
     27 N6         -2.7093    5.8371   -0.2800 N.2       1 ATP        -0.8115
     28 N1         -2.1051    5.1136    1.9204 N.pl3     1 ATP        -0.8400
     29 C2         -1.3354    4.2774    2.7129 C.ar      1 ATP         0.6671
     30 N3         -0.4707    3.3945    2.2944 N.2       1 ATP        -0.5806
     31 C4         -0.3734    3.3525    0.9220 C.ar      1 ATP         0.2748
     32 HOG3       -2.6628    3.7833   -3.7812 H         1 ATP         0.4327
     33 HOB2        1.7387    2.1225   -7.0601 H         1 ATP         0.4701
     34 H5'1        1.2163   -0.0770   -2.0471 H         1 ATP         0.0401
     35 H5'2        2.4655   -1.3443   -2.1563 H         1 ATP         0.0401
     36 H4'         3.8044   -0.1397   -0.4040 H         1 ATP         0.1136
     37 H3'         1.6764   -1.7639    0.2728 H         1 ATP         0.0693
     38 HO3'        2.2232   -1.2979    2.3953 H         1 ATP         0.4124
     39 H2'        -0.0011    0.0027    0.0003 H         1 ATP         0.0854
     40 HO2'       -0.6141    0.5574    2.1082 H         1 ATP         0.4367
     41 H1'         1.7826    1.9024    1.6451 H         1 ATP         0.1343
     42 H8          0.7125    2.3429   -1.9292 H         1 ATP         0.3302
     43 HN62       -3.3217    6.4517    0.2629 H         1 ATP         0.4160
     44 H2         -1.5188    4.4223    3.7890 H         1 ATP         0.0756
     45 H45        -2.7470    5.7627    2.3665 H         1 ATP         0.4587
     46 H46        -1.0305    4.1680   -2.1054 H         1 ATP         0.5254
@<TRIPOS>BOND
     1    1    2 2
     2    1    3 1
     3    1    4 1
     4    1    8 1
     5    4   32 1
     6    5    6 2
     7    5    7 1
     8    5    8 1
     9    5   12 1
    10    7   33 1
    11    9   10 2
    12    9   11 1
    13    9   12 1
    14    9   13 1
    15   13   14 1
    16   14   15 1
    17   14   34 1
    18   14   35 1
    19   15   16 1
    20   15   17 1
    21   15   36 1
    22   16   21 1
    23   17   18 1
    24   17   19 1
    25   17   37 1
    26   18   38 1
    27   19   20 1
    28   19   21 1
    29   19   39 1
    30   20   40 1
    31   21   22 1
    32   21   41 1
    33   22   23 ar
    34   22   31 ar
    35   23   24 ar
    36   23   42 1
    37   24   25 ar
    38   24   46 1
    39   25   26 ar
    40   25   31 ar
    41   26   27 2
    42   26   28 ar
    43   27   43 1
    44   28   29 ar
    45   28   45 1
    46   29   30 ar
    47   29   44 1
    48   30   31 ar
@<TRIPOS>SUBSTRUCTURE
     1 ATP         1 GROUP 0 A     ****
@<TRIPOS>MOLECULE
[[[3,4-dihydroxy-5-(6-imino-7,8-dihydro-1~{H}-purin-8-ylium-9-yl)tetrahydrofuran-2-yl]methoxy-oxido-phosphoryl]oxy-hydroxy-phosphoryl] hydrogen phosphate
   46    48     1     0     0
SMALL
USER_CHARGES

@<TRIPOS>ATOM
      1 PG         -2.0832    1.3493   -3.8719 P.3       1 ATP         1.5595
      2 O1G        -1.3275    1.1388   -2.5787 O.co2     1 ATP        -0.8438
      3 O2G        -2.9375    0.2489   -4.4606 O.co2     1 ATP        -0.8438
      4 O3G        -2.9985    2.6935   -3.7243 O.3       1 ATP        -0.7800
      5 PB          0.2024    1.1404   -5.7240 P.3       1 ATP         1.9223
      6 O1B        -0.1444   -0.1073   -6.4811 O.2       1 ATP        -0.8953
      7 O2B         0.8895    2.3084   -6.6057 O.3       1 ATP        -0.8165
      8 O3B        -1.0438    1.8823   -5.0102 O.3       1 ATP        -0.8247
      9 PA          2.7406    0.3767   -4.4296 P.3       1 ATP         1.6157
     10 O1A         3.6419    1.3302   -5.1835 O.co2     1 ATP        -0.8629
     11 O2A         2.7082   -1.0955   -4.7781 O.co2     1 ATP        -0.8629
     12 O3A         1.2118    0.9483   -4.4776 O.3       1 ATP        -0.8191
     13 O5'         3.0213    0.5153   -2.8245 O.3       1 ATP        -0.5644
     14 C5'         2.2816   -0.2918   -1.9206 C.3       1 ATP         0.2062
     15 C4'         2.7248    0.0226   -0.4980 C.3       1 ATP         0.0971
     16 O4'         2.4697    1.4219   -0.2462 O.3       1 ATP        -0.3662
     17 C3'         1.9404   -0.7419    0.5596 C.3       1 ATP         0.0734
     18 O3'         2.7418   -0.8086    1.7389 O.3       1 ATP        -0.5671
     19 C2'         0.7477    0.1630    0.7858 C.3       1 ATP         0.0745
     20 O2'         0.1373   -0.0577    2.0407 O.3       1 ATP        -0.5794
     21 C1'         1.3733    1.5427    0.6747 C.3       1 ATP         0.3824
     22 N9          0.4520    2.5240    0.1767 N.pl3     1 ATP        -0.4324
     23 C8          0.5691    3.2215   -0.9485 C.ar      1 ATP         0.2662
     24 N7         -0.4499    4.0551   -1.1342 N.pl3     1 ATP        -0.4772
     25 C5         -1.2618    3.8674   -0.0512 C.ar      1 ATP        -0.1305
     26 C6         -2.5420    4.5007    0.3120 C.ar      1 ATP         0.7186
     27 N6         -3.0874    5.3993   -0.4432 N.2       1 ATP        -0.8115
     28 N1         -3.0494    4.0205    1.5133 N.pl3     1 ATP        -0.8400
     29 C2         -2.3933    3.0527    2.2567 C.ar      1 ATP         0.6671
     30 N3         -1.2611    2.4796    1.9536 N.2       1 ATP        -0.5806
     31 C4         -0.7334    2.9358    0.7669 C.ar      1 ATP         0.2748
     32 HOG3       -3.5528    2.9666   -4.4861 H         1 ATP         0.4327
     33 HOB2        0.3953    2.6817   -7.3664 H         1 ATP         0.4701
     34 H5'1        1.2163   -0.0770   -2.0471 H         1 ATP         0.0401
     35 H5'2        2.4655   -1.3443   -2.1563 H         1 ATP         0.0401
     36 H4'         3.8044   -0.1397   -0.4040 H         1 ATP         0.1136
     37 H3'         1.6764   -1.7639    0.2728 H         1 ATP         0.0693
     38 HO3'        2.2232   -1.2979    2.3953 H         1 ATP         0.4124
     39 H2'        -0.0011    0.0027    0.0003 H         1 ATP         0.0854
     40 HO2'       -0.1563   -0.9855    2.0596 H         1 ATP         0.4367
     41 H1'         1.7826    1.9024    1.6451 H         1 ATP         0.1343
     42 H8          1.3912    3.1285   -1.6365 H         1 ATP         0.3302
     43 HN62       -3.9637    5.7084   -0.0142 H         1 ATP         0.4160
     44 H2         -2.9317    2.7866    3.1796 H         1 ATP         0.0756
     45 H45        -3.9307    4.3923    1.8559 H         1 ATP         0.4587
     46 H46        -0.5835    4.6857   -1.9122 H         1 ATP         0.5254
@<TRIPOS>BOND
     1    1    2 2
     2    1    3 1
     3    1    4 1
     4    1    8 1
     5    4   32 1
     6    5    6 2
     7    5    7 1
     8    5    8 1
     9    5   12 1
    10    7   33 1
    11    9   10 2
    12    9   11 1
    13    9   12 1
    14    9   13 1
    15   13   14 1
    16   14   15 1
    17   14   34 1
    18   14   35 1
    19   15   16 1
    20   15   17 1
    21   15   36 1
    22   16   21 1
    23   17   18 1
    24   17   19 1
    25   17   37 1
    26   18   38 1
    27   19   20 1
    28   19   21 1
    29   19   39 1
    30   20   40 1
    31   21   22 1
    32   21   41 1
    33   22   23 ar
    34   22   31 ar
    35   23   24 ar
    36   23   42 1
    37   24   25 ar
    38   24   46 1
    39   25   26 ar
    40   25   31 ar
    41   26   27 2
    42   26   28 ar
    43   27   43 1
    44   28   29 ar
    45   28   45 1
    46   29   30 ar
    47   29   44 1
    48   30   31 ar
@<TRIPOS>SUBSTRUCTURE
     1 ATP         1 GROUP 0 A     ****
@<TRIPOS>MOLECULE
[[[3,4-dihydroxy-5-(6-imino-7,8-dihydro-1~{H}-purin-8-ylium-9-yl)tetrahydrofuran-2-yl]methoxy-oxido-phosphoryl]oxy-hydroxy-phosphoryl] hydrogen phosphate
   46    48     1     0     0
SMALL
USER_CHARGES

@<TRIPOS>ATOM
      1 PG         -1.0454   -1.0225   -7.2933 P.3       1 ATP         1.5595
      2 O1G        -0.5900   -0.5781   -8.6655 O.co2     1 ATP        -0.8438
      3 O2G        -2.4748   -0.8159   -6.8444 O.co2     1 ATP        -0.8438
      4 O3G        -0.6663   -2.5997   -7.1070 O.3       1 ATP        -0.7800
      5 PB          0.2024    1.1404   -5.7240 P.3       1 ATP         1.9223
      6 O1B         0.6759    2.0587   -6.8116 O.2       1 ATP        -0.8953
      7 O2B        -1.1962    1.5623   -5.0315 O.3       1 ATP        -0.8165
      8 O3B        -0.0401   -0.3931   -6.1737 O.3       1 ATP        -0.8247
      9 PA          2.7406    0.3767   -4.4296 P.3       1 ATP         1.6157
     10 O1A         3.6419    1.3302   -5.1835 O.co2     1 ATP        -0.8629
     11 O2A         2.7082   -1.0955   -4.7781 O.co2     1 ATP        -0.8629
     12 O3A         1.2118    0.9483   -4.4776 O.3       1 ATP        -0.8191
     13 O5'         3.0213    0.5153   -2.8245 O.3       1 ATP        -0.5644
     14 C5'         2.2816   -0.2918   -1.9206 C.3       1 ATP         0.2062
     15 C4'         2.7248    0.0226   -0.4980 C.3       1 ATP         0.0971
     16 O4'         2.4697    1.4219   -0.2462 O.3       1 ATP        -0.3662
     17 C3'         1.9404   -0.7419    0.5596 C.3       1 ATP         0.0734
     18 O3'         2.7418   -0.8086    1.7389 O.3       1 ATP        -0.5671
     19 C2'         0.7477    0.1630    0.7858 C.3       1 ATP         0.0745
     20 O2'         0.1373   -0.0577    2.0407 O.3       1 ATP        -0.5794
     21 C1'         1.3733    1.5427    0.6747 C.3       1 ATP         0.3824
     22 N9          0.4520    2.5240    0.1767 N.pl3     1 ATP        -0.4324
     23 C8          0.2216    2.8192   -1.0985 C.ar      1 ATP         0.2662
     24 N7         -0.6906    3.7763   -1.2384 N.pl3     1 ATP        -0.4772
     25 C5         -1.0575    4.1037    0.0366 C.ar      1 ATP        -0.1305
     26 C6         -2.0291    5.0943    0.5330 C.ar      1 ATP         0.7186
     27 N6         -2.7093    5.8371   -0.2800 N.2       1 ATP        -0.8115
     28 N1         -2.1051    5.1136    1.9204 N.pl3     1 ATP        -0.8400
     29 C2         -1.3354    4.2774    2.7129 C.ar      1 ATP         0.6671
     30 N3         -0.4707    3.3945    2.2944 N.2       1 ATP        -0.5806
     31 C4         -0.3734    3.3525    0.9220 C.ar      1 ATP         0.2748
     32 HOG3       -0.8989   -3.0389   -6.2613 H         1 ATP         0.4327
     33 HOB2       -1.2603    2.4326   -4.5834 H         1 ATP         0.4701
     34 H5'1        1.2163   -0.0770   -2.0471 H         1 ATP         0.0401
     35 H5'2        2.4655   -1.3443   -2.1563 H         1 ATP         0.0401
     36 H4'         3.8044   -0.1397   -0.4040 H         1 ATP         0.1136
     37 H3'         1.6764   -1.7639    0.2728 H         1 ATP         0.0693
     38 HO3'        2.2232   -1.2979    2.3953 H         1 ATP         0.4124
     39 H2'        -0.0011    0.0027    0.0003 H         1 ATP         0.0854
     40 HO2'       -0.6141    0.5574    2.1082 H         1 ATP         0.4367
     41 H1'         1.7826    1.9024    1.6451 H         1 ATP         0.1343
     42 H8          0.7125    2.3429   -1.9292 H         1 ATP         0.3302
     43 HN62       -3.3217    6.4517    0.2629 H         1 ATP         0.4160
     44 H2         -1.5188    4.4223    3.7890 H         1 ATP         0.0756
     45 H45        -2.7470    5.7627    2.3665 H         1 ATP         0.4587
     46 H46        -1.0305    4.1680   -2.1054 H         1 ATP         0.5254
@<TRIPOS>BOND
     1    1    2 2
     2    1    3 1
     3    1    4 1
     4    1    8 1
     5    4   32 1
     6    5    6 2
     7    5    7 1
     8    5    8 1
     9    5   12 1
    10    7   33 1
    11    9   10 2
    12    9   11 1
    13    9   12 1
    14    9   13 1
    15   13   14 1
    16   14   15 1
    17   14   34 1
    18   14   35 1
    19   15   16 1
    20   15   17 1
    21   15   36 1
    22   16   21 1
    23   17   18 1
    24   17   19 1
    25   17   37 1
    26   18   38 1
    27   19   20 1
    28   19   21 1
    29   19   39 1
    30   20   40 1
    31   21   22 1
    32   21   41 1
    33   22   23 ar
    34   22   31 ar
    35   23   24 ar
    36   23   42 1
    37   24   25 ar
    38   24   46 1
    39   25   26 ar
    40   25   31 ar
    41   26   27 2
    42   26   28 ar
    43   27   43 1
    44   28   29 ar
    45   28   45 1
    46   29   30 ar
    47   29   44 1
    48   30   31 ar
@<TRIPOS>SUBSTRUCTURE
     1 ATP         1 GROUP 0 A     ****
@<TRIPOS>MOLECULE
[[[3,4-dihydroxy-5-(6-imino-7,8-dihydro-1~{H}-purin-8-ylium-9-yl)tetrahydrofuran-2-yl]methoxy-oxido-phosphoryl]oxy-hydroxy-phosphoryl] hydrogen phosphate
   46    48     1     0     0
SMALL
USER_CHARGES

@<TRIPOS>ATOM
      1 PG          4.2057   -4.3509   -4.6020 P.3       1 ATP         1.5595
      2 O1G         2.7161   -4.1448   -4.7645 O.co2     1 ATP        -0.8438
      3 O2G         4.7889   -4.7942   -3.2789 O.co2     1 ATP        -0.8438
      4 O3G         4.7166   -5.3780   -5.7639 O.3       1 ATP        -0.7800
      5 PB          5.0039   -1.5143   -4.4813 P.3       1 ATP         1.9223
      6 O1B         5.5215   -1.4129   -3.0770 O.2       1 ATP        -0.8953
      7 O2B         5.8244   -0.6552   -5.5778 O.3       1 ATP        -0.8165
      8 O3B         4.9825   -3.0067   -5.1019 O.3       1 ATP        -0.8247
      9 PA          2.7406    0.3767   -4.4296 P.3       1 ATP         1.6157
     10 O1A         1.2546    0.2225   -4.6703 O.co2     1 ATP        -0.8629
     11 O2A         3.5320    1.4518   -5.1421 O.co2     1 ATP        -0.8629
     12 O3A         3.4692   -1.0595   -4.6990 O.3       1 ATP        -0.8191
     13 O5'         3.0213    0.5153   -2.8245 O.3       1 ATP        -0.5644
     14 C5'         2.2816   -0.2918   -1.9206 C.3       1 ATP         0.2062
     15 C4'         2.7248    0.0226   -0.4980 C.3       1 ATP         0.0971
     16 O4'         2.4697    1.4219   -0.2462 O.3       1 ATP        -0.3662
     17 C3'         1.9404   -0.7419    0.5596 C.3       1 ATP         0.0734
     18 O3'         2.7418   -0.8086    1.7389 O.3       1 ATP        -0.5671
     19 C2'         0.7477    0.1630    0.7858 C.3       1 ATP         0.0745
     20 O2'         0.1373   -0.0577    2.0407 O.3       1 ATP        -0.5794
     21 C1'         1.3733    1.5427    0.6747 C.3       1 ATP         0.3824
     22 N9          0.4520    2.5240    0.1767 N.pl3     1 ATP        -0.4324
     23 C8          0.2216    2.8192   -1.0985 C.ar      1 ATP         0.2662
     24 N7         -0.6906    3.7763   -1.2384 N.pl3     1 ATP        -0.4772
     25 C5         -1.0575    4.1037    0.0366 C.ar      1 ATP        -0.1305
     26 C6         -2.0291    5.0943    0.5330 C.ar      1 ATP         0.7186
     27 N6         -2.7093    5.8371   -0.2800 N.2       1 ATP        -0.8115
     28 N1         -2.1051    5.1136    1.9204 N.pl3     1 ATP        -0.8400
     29 C2         -1.3354    4.2774    2.7129 C.ar      1 ATP         0.6671
     30 N3         -0.4707    3.3945    2.2944 N.2       1 ATP        -0.5806
     31 C4         -0.3734    3.3525    0.9220 C.ar      1 ATP         0.2748
     32 HOG3        5.6682   -5.6139   -5.7928 H         1 ATP         0.4327
     33 HOB2        5.8847    0.3179   -5.4699 H         1 ATP         0.4701
     34 H5'1        1.2163   -0.0770   -2.0471 H         1 ATP         0.0401
     35 H5'2        2.4655   -1.3443   -2.1563 H         1 ATP         0.0401
     36 H4'         3.8044   -0.1397   -0.4040 H         1 ATP         0.1136
     37 H3'         1.6764   -1.7639    0.2728 H         1 ATP         0.0693
     38 HO3'        2.2232   -1.2979    2.3953 H         1 ATP         0.4124
     39 H2'        -0.0011    0.0027    0.0003 H         1 ATP         0.0854
     40 HO2'       -0.6141    0.5574    2.1082 H         1 ATP         0.4367
     41 H1'         1.7826    1.9024    1.6451 H         1 ATP         0.1343
     42 H8          0.7125    2.3429   -1.9292 H         1 ATP         0.3302
     43 HN62       -3.3217    6.4517    0.2629 H         1 ATP         0.4160
     44 H2         -1.5188    4.4223    3.7890 H         1 ATP         0.0756
     45 H45        -2.7470    5.7627    2.3665 H         1 ATP         0.4587
     46 H46        -1.0305    4.1680   -2.1054 H         1 ATP         0.5254
@<TRIPOS>BOND
     1    1    2 2
     2    1    3 1
     3    1    4 1
     4    1    8 1
     5    4   32 1
     6    5    6 2
     7    5    7 1
     8    5    8 1
     9    5   12 1
    10    7   33 1
    11    9   10 2
    12    9   11 1
    13    9   12 1
    14    9   13 1
    15   13   14 1
    16   14   15 1
    17   14   34 1
    18   14   35 1
    19   15   16 1
    20   15   17 1
    21   15   36 1
    22   16   21 1
    23   17   18 1
    24   17   19 1
    25   17   37 1
    26   18   38 1
    27   19   20 1
    28   19   21 1
    29   19   39 1
    30   20   40 1
    31   21   22 1
    32   21   41 1
    33   22   23 ar
    34   22   31 ar
    35   23   24 ar
    36   23   42 1
    37   24   25 ar
    38   24   46 1
    39   25   26 ar
    40   25   31 ar
    41   26   27 2
    42   26   28 ar
    43   27   43 1
    44   28   29 ar
    45   28   45 1
    46   29   30 ar
    47   29   44 1
    48   30   31 ar
@<TRIPOS>SUBSTRUCTURE
     1 ATP         1 GROUP 0 A     ****
@<TRIPOS>MOLECULE
[[[3,4-dihydroxy-5-(6-imino-7,8-dihydro-1~{H}-purin-8-ylium-9-yl)tetrahydrofuran-2-yl]methoxy-oxido-phosphoryl]oxy-hydroxy-phosphoryl] hydrogen phosphate
   46    48     1     0     0
SMALL
USER_CHARGES

@<TRIPOS>ATOM
      1 PG          5.7924   -3.5029   -4.8304 P.3       1 ATP         1.5595
      2 O1G         5.8356   -2.8009   -3.4914 O.co2     1 ATP        -0.8438
      3 O2G         6.8612   -3.2564   -5.8717 O.co2     1 ATP        -0.8438
      4 O3G         5.6844   -5.1111   -4.5691 O.3       1 ATP        -0.7800
      5 PB          3.6349   -1.9126   -6.0608 P.3       1 ATP         1.9223
      6 O1B         4.3711   -1.2279   -7.1741 O.2       1 ATP        -0.8953
      7 O2B         2.1271   -2.3735   -6.4179 O.3       1 ATP        -0.8165
      8 O3B         4.3270   -3.2636   -5.5052 O.3       1 ATP        -0.8247
      9 PA          2.7406    0.3767   -4.4296 P.3       1 ATP         1.6157
     10 O1A         1.2546    0.2225   -4.6703 O.co2     1 ATP        -0.8629
     11 O2A         3.5320    1.4518   -5.1421 O.co2     1 ATP        -0.8629
     12 O3A         3.4692   -1.0595   -4.6990 O.3       1 ATP        -0.8191
     13 O5'         3.0213    0.5153   -2.8245 O.3       1 ATP        -0.5644
     14 C5'         2.2816   -0.2918   -1.9206 C.3       1 ATP         0.2062
     15 C4'         2.7248    0.0226   -0.4980 C.3       1 ATP         0.0971
     16 O4'         2.4697    1.4219   -0.2462 O.3       1 ATP        -0.3662
     17 C3'         1.9404   -0.7419    0.5596 C.3       1 ATP         0.0734
     18 O3'         2.7418   -0.8086    1.7389 O.3       1 ATP        -0.5671
     19 C2'         0.7477    0.1630    0.7858 C.3       1 ATP         0.0745
     20 O2'         0.1373   -0.0577    2.0407 O.3       1 ATP        -0.5794
     21 C1'         1.3733    1.5427    0.6747 C.3       1 ATP         0.3824
     22 N9          0.4520    2.5240    0.1767 N.pl3     1 ATP        -0.4324
     23 C8          0.2216    2.8192   -1.0985 C.ar      1 ATP         0.2662
     24 N7         -0.6906    3.7763   -1.2384 N.pl3     1 ATP        -0.4772
     25 C5         -1.0575    4.1037    0.0366 C.ar      1 ATP        -0.1305
     26 C6         -2.0291    5.0943    0.5330 C.ar      1 ATP         0.7186
     27 N6         -2.7093    5.8371   -0.2800 N.2       1 ATP        -0.8115
     28 N1         -2.1051    5.1136    1.9204 N.pl3     1 ATP        -0.8400
     29 C2         -1.3354    4.2774    2.7129 C.ar      1 ATP         0.6671
     30 N3         -0.4707    3.3945    2.2944 N.2       1 ATP        -0.5806
     31 C4         -0.3734    3.3525    0.9220 C.ar      1 ATP         0.2748
     32 HOG3        5.6467   -5.7087   -5.3460 H         1 ATP         0.4327
     33 HOB2        1.4732   -1.6925   -6.6843 H         1 ATP         0.4701
     34 H5'1        1.2163   -0.0770   -2.0471 H         1 ATP         0.0401
     35 H5'2        2.4655   -1.3443   -2.1563 H         1 ATP         0.0401
     36 H4'         3.8044   -0.1397   -0.4040 H         1 ATP         0.1136
     37 H3'         1.6764   -1.7639    0.2728 H         1 ATP         0.0693
     38 HO3'        2.2232   -1.2979    2.3953 H         1 ATP         0.4124
     39 H2'        -0.0011    0.0027    0.0003 H         1 ATP         0.0854
     40 HO2'       -0.6141    0.5574    2.1082 H         1 ATP         0.4367
     41 H1'         1.7826    1.9024    1.6451 H         1 ATP         0.1343
     42 H8          0.7125    2.3429   -1.9292 H         1 ATP         0.3302
     43 HN62       -3.3217    6.4517    0.2629 H         1 ATP         0.4160
     44 H2         -1.5188    4.4223    3.7890 H         1 ATP         0.0756
     45 H45        -2.7470    5.7627    2.3665 H         1 ATP         0.4587
     46 H46        -1.0305    4.1680   -2.1054 H         1 ATP         0.5254
@<TRIPOS>BOND
     1    1    2 2
     2    1    3 1
     3    1    4 1
     4    1    8 1
     5    4   32 1
     6    5    6 2
     7    5    7 1
     8    5    8 1
     9    5   12 1
    10    7   33 1
    11    9   10 2
    12    9   11 1
    13    9   12 1
    14    9   13 1
    15   13   14 1
    16   14   15 1
    17   14   34 1
    18   14   35 1
    19   15   16 1
    20   15   17 1
    21   15   36 1
    22   16   21 1
    23   17   18 1
    24   17   19 1
    25   17   37 1
    26   18   38 1
    27   19   20 1
    28   19   21 1
    29   19   39 1
    30   20   40 1
    31   21   22 1
    32   21   41 1
    33   22   23 ar
    34   22   31 ar
    35   23   24 ar
    36   23   42 1
    37   24   25 ar
    38   24   46 1
    39   25   26 ar
    40   25   31 ar
    41   26   27 2
    42   26   28 ar
    43   27   43 1
    44   28   29 ar
    45   28   45 1
    46   29   30 ar
    47   29   44 1
    48   30   31 ar
@<TRIPOS>SUBSTRUCTURE
     1 ATP         1 GROUP 0 A     ****
@<TRIPOS>MOLECULE
[[[3,4-dihydroxy-5-(6-imino-7,8-dihydro-1~{H}-purin-8-ylium-9-yl)tetrahydrofuran-2-yl]methoxy-oxido-phosphoryl]oxy-hydroxy-phosphoryl] hydrogen phosphate
   46    48     1     0     0
SMALL
USER_CHARGES

@<TRIPOS>ATOM
      1 PG         -2.5813   -2.9907   -2.3351 P.3       1 ATP         1.5595
      2 O1G        -1.6595   -2.6030   -1.2003 O.co2     1 ATP        -0.8438
      3 O2G        -2.9966   -4.4303   -2.5414 O.co2     1 ATP        -0.8438
      4 O3G        -3.9271   -2.0704   -2.2471 O.3       1 ATP        -0.7800
      5 PB         -0.6283   -2.7993   -4.5367 P.3       1 ATP         1.9223
      6 O1B        -0.5422   -4.2298   -4.9800 O.2       1 ATP        -0.8953
      7 O2B        -0.5621   -1.7077   -5.7273 O.3       1 ATP        -0.8165
      8 O3B        -1.9740   -2.4070   -3.7317 O.3       1 ATP        -0.8247
      9 PA          2.1371   -2.2715   -3.6563 P.3       1 ATP         1.6157
     10 O1A         2.4976   -1.2664   -4.7285 O.co2     1 ATP        -0.8629
     11 O2A         2.6455   -3.6950   -3.7283 O.co2     1 ATP        -0.8629
     12 O3A         0.5123   -2.3150   -3.5004 O.3       1 ATP        -0.8191
     13 O5'         2.5245   -1.6648   -2.1878 O.3       1 ATP        -0.5644
     14 C5'         2.2816   -0.2918   -1.9206 C.3       1 ATP         0.2062
     15 C4'         2.7248    0.0226   -0.4980 C.3       1 ATP         0.0971
     16 O4'         2.4697    1.4219   -0.2462 O.3       1 ATP        -0.3662
     17 C3'         1.9404   -0.7419    0.5596 C.3       1 ATP         0.0734
     18 O3'         2.7418   -0.8086    1.7389 O.3       1 ATP        -0.5671
     19 C2'         0.7477    0.1630    0.7858 C.3       1 ATP         0.0745
     20 O2'         0.1373   -0.0577    2.0407 O.3       1 ATP        -0.5794
     21 C1'         1.3733    1.5427    0.6747 C.3       1 ATP         0.3824
     22 N9          0.4520    2.5240    0.1767 N.pl3     1 ATP        -0.4324
     23 C8          0.2216    2.8192   -1.0985 C.ar      1 ATP         0.2662
     24 N7         -0.6906    3.7763   -1.2384 N.pl3     1 ATP        -0.4772
     25 C5         -1.0575    4.1037    0.0366 C.ar      1 ATP        -0.1305
     26 C6         -2.0291    5.0943    0.5330 C.ar      1 ATP         0.7186
     27 N6         -2.7093    5.8371   -0.2800 N.2       1 ATP        -0.8115
     28 N1         -2.1051    5.1136    1.9204 N.pl3     1 ATP        -0.8400
     29 C2         -1.3354    4.2774    2.7129 C.ar      1 ATP         0.6671
     30 N3         -0.4707    3.3945    2.2944 N.2       1 ATP        -0.5806
     31 C4         -0.3734    3.3525    0.9220 C.ar      1 ATP         0.2748
     32 HOG3       -4.6283   -2.2033   -2.9201 H         1 ATP         0.4327
     33 HOB2        0.2331   -1.6788   -6.3010 H         1 ATP         0.4701
     34 H5'1        2.8432    0.3119   -2.6398 H         1 ATP         0.0401
     35 H5'2        1.2128   -0.0927   -2.0428 H         1 ATP         0.0401
     36 H4'         3.8044   -0.1397   -0.4040 H         1 ATP         0.1136
     37 H3'         1.6764   -1.7639    0.2728 H         1 ATP         0.0693
     38 HO3'        2.2232   -1.2979    2.3953 H         1 ATP         0.4124
     39 H2'        -0.0011    0.0027    0.0003 H         1 ATP         0.0854
     40 HO2'       -0.6141    0.5574    2.1082 H         1 ATP         0.4367
     41 H1'         1.7826    1.9024    1.6451 H         1 ATP         0.1343
     42 H8          0.7125    2.3429   -1.9292 H         1 ATP         0.3302
     43 HN62       -3.3217    6.4517    0.2629 H         1 ATP         0.4160
     44 H2         -1.5188    4.4223    3.7890 H         1 ATP         0.0756
     45 H45        -2.7470    5.7627    2.3665 H         1 ATP         0.4587
     46 H46        -1.0305    4.1680   -2.1054 H         1 ATP         0.5254
@<TRIPOS>BOND
     1    1    2 2
     2    1    3 1
     3    1    4 1
     4    1    8 1
     5    4   32 1
     6    5    6 2
     7    5    7 1
     8    5    8 1
     9    5   12 1
    10    7   33 1
    11    9   10 2
    12    9   11 1
    13    9   12 1
    14    9   13 1
    15   13   14 1
    16   14   15 1
    17   14   34 1
    18   14   35 1
    19   15   16 1
    20   15   17 1
    21   15   36 1
    22   16   21 1
    23   17   18 1
    24   17   19 1
    25   17   37 1
    26   18   38 1
    27   19   20 1
    28   19   21 1
    29   19   39 1
    30   20   40 1
    31   21   22 1
    32   21   41 1
    33   22   23 ar
    34   22   31 ar
    35   23   24 ar
    36   23   42 1
    37   24   25 ar
    38   24   46 1
    39   25   26 ar
    40   25   31 ar
    41   26   27 2
    42   26   28 ar
    43   27   43 1
    44   28   29 ar
    45   28   45 1
    46   29   30 ar
    47   29   44 1
    48   30   31 ar
@<TRIPOS>SUBSTRUCTURE
     1 ATP         1 GROUP 0 A     ****
@<TRIPOS>MOLECULE
[[[3,4-dihydroxy-5-(6-imino-7,8-dihydro-1~{H}-purin-8-ylium-9-yl)tetrahydrofuran-2-yl]methoxy-oxido-phosphoryl]oxy-hydroxy-phosphoryl] hydrogen phosphate
   46    48     1     0     0
SMALL
USER_CHARGES

@<TRIPOS>ATOM
      1 PG          3.5592    5.8246   -5.2637 P.3       1 ATP         1.5595
      2 O1G         3.8101    6.9926   -4.3361 O.co2     1 ATP        -0.8438
      3 O2G         2.4642    5.8811   -6.3055 O.co2     1 ATP        -0.8438
      4 O3G         4.9621    5.4419   -6.0065 O.3       1 ATP        -0.7800
      5 PB          2.2098    4.0482   -3.3347 P.3       1 ATP         1.9223
      6 O1B         2.0323    4.9666   -2.1619 O.2       1 ATP        -0.8953
      7 O2B         0.9053    3.8760   -4.2739 O.3       1 ATP        -0.8165
      8 O3B         3.3752    4.4717   -4.3716 O.3       1 ATP        -0.8247
      9 PA          2.9230    1.2546   -3.9578 P.3       1 ATP         1.6157
     10 O1A         4.1492    1.5455   -4.7953 O.co2     1 ATP        -0.8629
     11 O2A         1.6175    0.8553   -4.6106 O.co2     1 ATP        -0.8629
     12 O3A         2.6378    2.5313   -2.9807 O.3       1 ATP        -0.8191
     13 O5'         3.2903    0.1346   -2.8241 O.3       1 ATP        -0.5644
     14 C5'         2.2816   -0.2918   -1.9206 C.3       1 ATP         0.2062
     15 C4'         2.7248    0.0226   -0.4980 C.3       1 ATP         0.0971
     16 O4'         2.4697    1.4219   -0.2462 O.3       1 ATP        -0.3662
     17 C3'         1.9404   -0.7419    0.5596 C.3       1 ATP         0.0734
     18 O3'         2.7418   -0.8086    1.7389 O.3       1 ATP        -0.5671
     19 C2'         0.7477    0.1630    0.7858 C.3       1 ATP         0.0745
     20 O2'         0.1373   -0.0577    2.0407 O.3       1 ATP        -0.5794
     21 C1'         1.3733    1.5427    0.6747 C.3       1 ATP         0.3824
     22 N9          0.4520    2.5240    0.1767 N.pl3     1 ATP        -0.4324
     23 C8         -0.2004    2.4829   -0.9804 C.ar      1 ATP         0.2662
     24 N7         -0.9830    3.5431   -1.1568 N.pl3     1 ATP        -0.4772
     25 C5         -0.8095    4.3012   -0.0331 C.ar      1 ATP        -0.1305
     26 C6         -1.4065    5.5904    0.3585 C.ar      1 ATP         0.7186
     27 N6         -2.2501    6.2030   -0.4084 N.2       1 ATP        -0.8115
     28 N1         -0.9585    6.0272    1.5994 N.pl3     1 ATP        -0.8400
     29 C2         -0.0508    5.3009    2.3532 C.ar      1 ATP         0.6671
     30 N3          0.4890    4.1592    2.0257 N.2       1 ATP        -0.5806
     31 C4          0.0637    3.7006    0.7995 C.ar      1 ATP         0.2748
     32 HOG3        4.9640    4.6977   -6.6454 H         1 ATP         0.4327
     33 HOB2        0.0805    3.5200   -3.8799 H         1 ATP         0.4701
     34 H5'1        1.3514    0.2330   -2.1577 H         1 ATP         0.0401
     35 H5'2        2.1280   -1.3678   -2.0460 H         1 ATP         0.0401
     36 H4'         3.8044   -0.1397   -0.4040 H         1 ATP         0.1136
     37 H3'         1.6764   -1.7639    0.2728 H         1 ATP         0.0693
     38 HO3'        2.2232   -1.2979    2.3953 H         1 ATP         0.4124
     39 H2'        -0.0011    0.0027    0.0003 H         1 ATP         0.0854
     40 HO2'       -0.6141    0.5574    2.1082 H         1 ATP         0.4367
     41 H1'         1.7826    1.9024    1.6451 H         1 ATP         0.1343
     42 H8         -0.1116    1.6863   -1.6984 H         1 ATP         0.3302
     43 HN62       -2.5420    7.0730    0.0447 H         1 ATP         0.4160
     44 H2          0.1969    5.7893    3.3086 H         1 ATP         0.0756
     45 H45        -1.3097    6.9080    1.9642 H         1 ATP         0.4587
     46 H46        -1.5735    3.7351   -1.9538 H         1 ATP         0.5254
@<TRIPOS>BOND
     1    1    2 2
     2    1    3 1
     3    1    4 1
     4    1    8 1
     5    4   32 1
     6    5    6 2
     7    5    7 1
     8    5    8 1
     9    5   12 1
    10    7   33 1
    11    9   10 2
    12    9   11 1
    13    9   12 1
    14    9   13 1
    15   13   14 1
    16   14   15 1
    17   14   34 1
    18   14   35 1
    19   15   16 1
    20   15   17 1
    21   15   36 1
    22   16   21 1
    23   17   18 1
    24   17   19 1
    25   17   37 1
    26   18   38 1
    27   19   20 1
    28   19   21 1
    29   19   39 1
    30   20   40 1
    31   21   22 1
    32   21   41 1
    33   22   23 ar
    34   22   31 ar
    35   23   24 ar
    36   23   42 1
    37   24   25 ar
    38   24   46 1
    39   25   26 ar
    40   25   31 ar
    41   26   27 2
    42   26   28 ar
    43   27   43 1
    44   28   29 ar
    45   28   45 1
    46   29   30 ar
    47   29   44 1
    48   30   31 ar
@<TRIPOS>SUBSTRUCTURE
     1 ATP         1 GROUP 0 A     ****
@<TRIPOS>MOLECULE
[[[3,4-dihydroxy-5-(6-imino-7,8-dihydro-1~{H}-purin-8-ylium-9-yl)tetrahydrofuran-2-yl]methoxy-oxido-phosphoryl]oxy-hydroxy-phosphoryl] hydrogen phosphate
   46    48     1     0     0
SMALL
USER_CHARGES

@<TRIPOS>ATOM
      1 PG         -2.6996   -1.3567   -3.1128 P.3       1 ATP         1.5595
      2 O1G        -1.9959   -0.4637   -4.1103 O.co2     1 ATP        -0.8438
      3 O2G        -3.0128   -0.8663   -1.7168 O.co2     1 ATP        -0.8438
      4 O3G        -4.0797   -1.9051   -3.7914 O.3       1 ATP        -0.7800
      5 PB         -0.4192   -3.1020   -2.4410 P.3       1 ATP         1.9223
      6 O1B        -0.1995   -2.7581   -0.9975 O.2       1 ATP        -0.8953
      7 O2B        -0.2038   -4.6601   -2.8147 O.3       1 ATP        -0.8165
      8 O3B        -1.8951   -2.7718   -3.0114 O.3       1 ATP        -0.8247
      9 PA          2.1371   -2.2715   -3.6563 P.3       1 ATP         1.6157
     10 O1A         2.4976   -1.2664   -4.7285 O.co2     1 ATP        -0.8629
     11 O2A         2.6455   -3.6950   -3.7283 O.co2     1 ATP        -0.8629
     12 O3A         0.5123   -2.3150   -3.5004 O.3       1 ATP        -0.8191
     13 O5'         2.5245   -1.6648   -2.1878 O.3       1 ATP        -0.5644
     14 C5'         2.2816   -0.2918   -1.9206 C.3       1 ATP         0.2062
     15 C4'         2.7248    0.0226   -0.4980 C.3       1 ATP         0.0971
     16 O4'         2.4697    1.4219   -0.2462 O.3       1 ATP        -0.3662
     17 C3'         1.9404   -0.7419    0.5596 C.3       1 ATP         0.0734
     18 O3'         2.7418   -0.8086    1.7389 O.3       1 ATP        -0.5671
     19 C2'         0.7477    0.1630    0.7858 C.3       1 ATP         0.0745
     20 O2'         0.1373   -0.0577    2.0407 O.3       1 ATP        -0.5794
     21 C1'         1.3733    1.5427    0.6747 C.3       1 ATP         0.3824
     22 N9          0.4520    2.5240    0.1767 N.pl3     1 ATP        -0.4324
     23 C8          0.2216    2.8192   -1.0985 C.ar      1 ATP         0.2662
     24 N7         -0.6906    3.7763   -1.2384 N.pl3     1 ATP        -0.4772
     25 C5         -1.0575    4.1037    0.0366 C.ar      1 ATP        -0.1305
     26 C6         -2.0291    5.0943    0.5330 C.ar      1 ATP         0.7186
     27 N6         -2.7093    5.8371   -0.2800 N.2       1 ATP        -0.8115
     28 N1         -2.1051    5.1136    1.9204 N.pl3     1 ATP        -0.8400
     29 C2         -1.3354    4.2774    2.7129 C.ar      1 ATP         0.6671
     30 N3         -0.4707    3.3945    2.2944 N.2       1 ATP        -0.5806
     31 C4         -0.3734    3.3525    0.9220 C.ar      1 ATP         0.2748
     32 HOG3       -4.6534   -2.5020   -3.2653 H         1 ATP         0.4327
     33 HOB2        0.6735   -5.0693   -2.6557 H         1 ATP         0.4701
     34 H5'1        2.8432    0.3119   -2.6398 H         1 ATP         0.0401
     35 H5'2        1.2128   -0.0927   -2.0428 H         1 ATP         0.0401
     36 H4'         3.8044   -0.1397   -0.4040 H         1 ATP         0.1136
     37 H3'         1.6764   -1.7639    0.2728 H         1 ATP         0.0693
     38 HO3'        2.2232   -1.2979    2.3953 H         1 ATP         0.4124
     39 H2'        -0.0011    0.0027    0.0003 H         1 ATP         0.0854
     40 HO2'       -0.6141    0.5574    2.1082 H         1 ATP         0.4367
     41 H1'         1.7826    1.9024    1.6451 H         1 ATP         0.1343
     42 H8          0.7125    2.3429   -1.9292 H         1 ATP         0.3302
     43 HN62       -3.3217    6.4517    0.2629 H         1 ATP         0.4160
     44 H2         -1.5188    4.4223    3.7890 H         1 ATP         0.0756
     45 H45        -2.7470    5.7627    2.3665 H         1 ATP         0.4587
     46 H46        -1.0305    4.1680   -2.1054 H         1 ATP         0.5254
@<TRIPOS>BOND
     1    1    2 2
     2    1    3 1
     3    1    4 1
     4    1    8 1
     5    4   32 1
     6    5    6 2
     7    5    7 1
     8    5    8 1
     9    5   12 1
    10    7   33 1
    11    9   10 2
    12    9   11 1
    13    9   12 1
    14    9   13 1
    15   13   14 1
    16   14   15 1
    17   14   34 1
    18   14   35 1
    19   15   16 1
    20   15   17 1
    21   15   36 1
    22   16   21 1
    23   17   18 1
    24   17   19 1
    25   17   37 1
    26   18   38 1
    27   19   20 1
    28   19   21 1
    29   19   39 1
    30   20   40 1
    31   21   22 1
    32   21   41 1
    33   22   23 ar
    34   22   31 ar
    35   23   24 ar
    36   23   42 1
    37   24   25 ar
    38   24   46 1
    39   25   26 ar
    40   25   31 ar
    41   26   27 2
    42   26   28 ar
    43   27   43 1
    44   28   29 ar
    45   28   45 1
    46   29   30 ar
    47   29   44 1
    48   30   31 ar
@<TRIPOS>SUBSTRUCTURE
     1 ATP         1 GROUP 0 A     ****
@<TRIPOS>MOLECULE
[[[3,4-dihydroxy-5-(6-imino-7,8-dihydro-1~{H}-purin-8-ylium-9-yl)tetrahydrofuran-2-yl]methoxy-oxido-phosphoryl]oxy-hydroxy-phosphoryl] hydrogen phosphate
   46    48     1     0     0
SMALL
USER_CHARGES

@<TRIPOS>ATOM
      1 PG          0.8084    2.5466   -8.2446 P.3       1 ATP         1.5595
      2 O1G        -0.3501    3.5189   -8.2283 O.co2     1 ATP        -0.8438
      3 O2G         0.8032    1.3472   -9.1659 O.co2     1 ATP        -0.8438
      4 O3G         2.1863    3.3864   -8.4946 O.3       1 ATP        -0.7800
      5 PB          0.2024    1.1404   -5.7240 P.3       1 ATP         1.9223
      6 O1B        -1.1476    1.7027   -5.3896 O.2       1 ATP        -0.8953
      7 O2B         0.1830   -0.3103   -6.4371 O.3       1 ATP        -0.8165
      8 O3B         1.0983    2.0449   -6.7200 O.3       1 ATP        -0.8247
      9 PA          2.7406    0.3767   -4.4296 P.3       1 ATP         1.6157
     10 O1A         3.6419    1.3302   -5.1835 O.co2     1 ATP        -0.8629
     11 O2A         2.7082   -1.0955   -4.7781 O.co2     1 ATP        -0.8629
     12 O3A         1.2118    0.9483   -4.4776 O.3       1 ATP        -0.8191
     13 O5'         3.0213    0.5153   -2.8245 O.3       1 ATP        -0.5644
     14 C5'         2.2816   -0.2918   -1.9206 C.3       1 ATP         0.2062
     15 C4'         2.7248    0.0226   -0.4980 C.3       1 ATP         0.0971
     16 O4'         2.4697    1.4219   -0.2462 O.3       1 ATP        -0.3662
     17 C3'         1.9404   -0.7419    0.5596 C.3       1 ATP         0.0734
     18 O3'         2.7418   -0.8086    1.7389 O.3       1 ATP        -0.5671
     19 C2'         0.7477    0.1630    0.7858 C.3       1 ATP         0.0745
     20 O2'         0.1373   -0.0577    2.0407 O.3       1 ATP        -0.5794
     21 C1'         1.3733    1.5427    0.6747 C.3       1 ATP         0.3824
     22 N9          0.4520    2.5240    0.1767 N.pl3     1 ATP        -0.4324
     23 C8          0.2216    2.8192   -1.0985 C.ar      1 ATP         0.2662
     24 N7         -0.6906    3.7763   -1.2384 N.pl3     1 ATP        -0.4772
     25 C5         -1.0575    4.1037    0.0366 C.ar      1 ATP        -0.1305
     26 C6         -2.0291    5.0943    0.5330 C.ar      1 ATP         0.7186
     27 N6         -2.7093    5.8371   -0.2800 N.2       1 ATP        -0.8115
     28 N1         -2.1051    5.1136    1.9204 N.pl3     1 ATP        -0.8400
     29 C2         -1.3354    4.2774    2.7129 C.ar      1 ATP         0.6671
     30 N3         -0.4707    3.3945    2.2944 N.2       1 ATP        -0.5806
     31 C4         -0.3734    3.3525    0.9220 C.ar      1 ATP         0.2748
     32 HOG3        3.0333    2.8931   -8.5316 H         1 ATP         0.4327
     33 HOB2       -0.2231   -1.0668   -5.9628 H         1 ATP         0.4701
     34 H5'1        1.2163   -0.0770   -2.0471 H         1 ATP         0.0401
     35 H5'2        2.4655   -1.3443   -2.1563 H         1 ATP         0.0401
     36 H4'         3.8044   -0.1397   -0.4040 H         1 ATP         0.1136
     37 H3'         1.6764   -1.7639    0.2728 H         1 ATP         0.0693
     38 HO3'        2.2232   -1.2979    2.3953 H         1 ATP         0.4124
     39 H2'        -0.0011    0.0027    0.0003 H         1 ATP         0.0854
     40 HO2'       -0.6141    0.5574    2.1082 H         1 ATP         0.4367
     41 H1'         1.7826    1.9024    1.6451 H         1 ATP         0.1343
     42 H8          0.7125    2.3429   -1.9292 H         1 ATP         0.3302
     43 HN62       -3.3217    6.4517    0.2629 H         1 ATP         0.4160
     44 H2         -1.5188    4.4223    3.7890 H         1 ATP         0.0756
     45 H45        -2.7470    5.7627    2.3665 H         1 ATP         0.4587
     46 H46        -1.0305    4.1680   -2.1054 H         1 ATP         0.5254
@<TRIPOS>BOND
     1    1    2 2
     2    1    3 1
     3    1    4 1
     4    1    8 1
     5    4   32 1
     6    5    6 2
     7    5    7 1
     8    5    8 1
     9    5   12 1
    10    7   33 1
    11    9   10 2
    12    9   11 1
    13    9   12 1
    14    9   13 1
    15   13   14 1
    16   14   15 1
    17   14   34 1
    18   14   35 1
    19   15   16 1
    20   15   17 1
    21   15   36 1
    22   16   21 1
    23   17   18 1
    24   17   19 1
    25   17   37 1
    26   18   38 1
    27   19   20 1
    28   19   21 1
    29   19   39 1
    30   20   40 1
    31   21   22 1
    32   21   41 1
    33   22   23 ar
    34   22   31 ar
    35   23   24 ar
    36   23   42 1
    37   24   25 ar
    38   24   46 1
    39   25   26 ar
    40   25   31 ar
    41   26   27 2
    42   26   28 ar
    43   27   43 1
    44   28   29 ar
    45   28   45 1
    46   29   30 ar
    47   29   44 1
    48   30   31 ar
@<TRIPOS>SUBSTRUCTURE
     1 ATP         1 GROUP 0 A     ****
@<TRIPOS>MOLECULE
[[[3,4-dihydroxy-5-(6-imino-7,8-dihydro-1~{H}-purin-8-ylium-9-yl)tetrahydrofuran-2-yl]methoxy-oxido-phosphoryl]oxy-hydroxy-phosphoryl] hydrogen phosphate
   46    48     1     0     0
SMALL
USER_CHARGES

@<TRIPOS>ATOM
      1 PG         -1.8336   -3.3627    0.2560 P.3       1 ATP         1.5595
      2 O1G        -2.9910   -2.8496    1.0836 O.co2     1 ATP        -0.8438
      3 O2G        -0.4038   -3.0886    0.6657 O.co2     1 ATP        -0.8438
      4 O3G        -2.0152   -4.9727    0.0532 O.3       1 ATP        -0.7800
      5 PB         -1.2120   -3.2745   -2.6256 P.3       1 ATP         1.9223
      6 O1B        -1.1832   -4.7351   -2.9662 O.2       1 ATP        -0.8953
      7 O2B        -1.8520   -2.3185   -3.7614 O.3       1 ATP        -0.8165
      8 O3B        -2.0425   -2.8939   -1.2921 O.3       1 ATP        -0.8247
      9 PA          1.5543   -2.4556   -3.2404 P.3       1 ATP         1.6157
     10 O1A         1.2372   -1.5511   -4.4114 O.co2     1 ATP        -0.8629
     11 O2A         2.1275   -3.8380   -3.4641 O.co2     1 ATP        -0.8629
     12 O3A         0.2206   -2.5984   -2.3094 O.3       1 ATP        -0.8191
     13 O5'         2.5245   -1.6648   -2.1878 O.3       1 ATP        -0.5644
     14 C5'         2.2816   -0.2918   -1.9206 C.3       1 ATP         0.2062
     15 C4'         2.7248    0.0226   -0.4980 C.3       1 ATP         0.0971
     16 O4'         2.4697    1.4219   -0.2462 O.3       1 ATP        -0.3662
     17 C3'         1.9404   -0.7419    0.5596 C.3       1 ATP         0.0734
     18 O3'         2.7418   -0.8086    1.7389 O.3       1 ATP        -0.5671
     19 C2'         0.7477    0.1630    0.7858 C.3       1 ATP         0.0745
     20 O2'         0.1373   -0.0577    2.0407 O.3       1 ATP        -0.5794
     21 C1'         1.3733    1.5427    0.6747 C.3       1 ATP         0.3824
     22 N9          0.4520    2.5240    0.1767 N.pl3     1 ATP        -0.4324
     23 C8          0.2216    2.8192   -1.0985 C.ar      1 ATP         0.2662
     24 N7         -0.6906    3.7763   -1.2384 N.pl3     1 ATP        -0.4772
     25 C5         -1.0575    4.1037    0.0366 C.ar      1 ATP        -0.1305
     26 C6         -2.0291    5.0943    0.5330 C.ar      1 ATP         0.7186
     27 N6         -2.7093    5.8371   -0.2800 N.2       1 ATP        -0.8115
     28 N1         -2.1051    5.1136    1.9204 N.pl3     1 ATP        -0.8400
     29 C2         -1.3354    4.2774    2.7129 C.ar      1 ATP         0.6671
     30 N3         -0.4707    3.3945    2.2944 N.2       1 ATP        -0.5806
     31 C4         -0.3734    3.3525    0.9220 C.ar      1 ATP         0.2748
     32 HOG3       -1.3388   -5.4569   -0.4667 H         1 ATP         0.4327
     33 HOB2       -1.4385   -2.2957   -4.6507 H         1 ATP         0.4701
     34 H5'1        2.8432    0.3119   -2.6398 H         1 ATP         0.0401
     35 H5'2        1.2128   -0.0927   -2.0428 H         1 ATP         0.0401
     36 H4'         3.8044   -0.1397   -0.4040 H         1 ATP         0.1136
     37 H3'         1.6764   -1.7639    0.2728 H         1 ATP         0.0693
     38 HO3'        2.2232   -1.2979    2.3953 H         1 ATP         0.4124
     39 H2'        -0.0011    0.0027    0.0003 H         1 ATP         0.0854
     40 HO2'       -0.1563   -0.9855    2.0596 H         1 ATP         0.4367
     41 H1'         1.7826    1.9024    1.6451 H         1 ATP         0.1343
     42 H8          0.7125    2.3429   -1.9292 H         1 ATP         0.3302
     43 HN62       -3.3217    6.4517    0.2629 H         1 ATP         0.4160
     44 H2         -1.5188    4.4223    3.7890 H         1 ATP         0.0756
     45 H45        -2.7470    5.7627    2.3665 H         1 ATP         0.4587
     46 H46        -1.0305    4.1680   -2.1054 H         1 ATP         0.5254
@<TRIPOS>BOND
     1    1    2 2
     2    1    3 1
     3    1    4 1
     4    1    8 1
     5    4   32 1
     6    5    6 2
     7    5    7 1
     8    5    8 1
     9    5   12 1
    10    7   33 1
    11    9   10 2
    12    9   11 1
    13    9   12 1
    14    9   13 1
    15   13   14 1
    16   14   15 1
    17   14   34 1
    18   14   35 1
    19   15   16 1
    20   15   17 1
    21   15   36 1
    22   16   21 1
    23   17   18 1
    24   17   19 1
    25   17   37 1
    26   18   38 1
    27   19   20 1
    28   19   21 1
    29   19   39 1
    30   20   40 1
    31   21   22 1
    32   21   41 1
    33   22   23 ar
    34   22   31 ar
    35   23   24 ar
    36   23   42 1
    37   24   25 ar
    38   24   46 1
    39   25   26 ar
    40   25   31 ar
    41   26   27 2
    42   26   28 ar
    43   27   43 1
    44   28   29 ar
    45   28   45 1
    46   29   30 ar
    47   29   44 1
    48   30   31 ar
@<TRIPOS>SUBSTRUCTURE
     1 ATP         1 GROUP 0 A     ****
@<TRIPOS>MOLECULE
[[[3,4-dihydroxy-5-(6-imino-7,8-dihydro-1~{H}-purin-8-ylium-9-yl)tetrahydrofuran-2-yl]methoxy-oxido-phosphoryl]oxy-hydroxy-phosphoryl] hydrogen phosphate
   46    48     1     0     0
SMALL
USER_CHARGES

@<TRIPOS>ATOM
      1 PG         -3.6141   -3.1234   -0.9212 P.3       1 ATP         1.5595
      2 O1G        -3.8750   -4.6075   -0.7911 O.co2     1 ATP        -0.8438
      3 O2G        -4.4655   -2.2613   -1.8264 O.co2     1 ATP        -0.8438
      4 O3G        -3.6142   -2.4643    0.5727 O.3       1 ATP        -0.7800
      5 PB         -1.2120   -3.2745   -2.6256 P.3       1 ATP         1.9223
      6 O1B        -1.1832   -4.7351   -2.9662 O.2       1 ATP        -0.8953
      7 O2B        -1.8520   -2.3185   -3.7614 O.3       1 ATP        -0.8165
      8 O3B        -2.0425   -2.8939   -1.2921 O.3       1 ATP        -0.8247
      9 PA          1.5543   -2.4556   -3.2404 P.3       1 ATP         1.6157
     10 O1A         1.2372   -1.5511   -4.4114 O.co2     1 ATP        -0.8629
     11 O2A         2.1275   -3.8380   -3.4641 O.co2     1 ATP        -0.8629
     12 O3A         0.2206   -2.5984   -2.3094 O.3       1 ATP        -0.8191
     13 O5'         2.5245   -1.6648   -2.1878 O.3       1 ATP        -0.5644
     14 C5'         2.2816   -0.2918   -1.9206 C.3       1 ATP         0.2062
     15 C4'         2.7248    0.0226   -0.4980 C.3       1 ATP         0.0971
     16 O4'         2.4697    1.4219   -0.2462 O.3       1 ATP        -0.3662
     17 C3'         1.9404   -0.7419    0.5596 C.3       1 ATP         0.0734
     18 O3'         2.7418   -0.8086    1.7389 O.3       1 ATP        -0.5671
     19 C2'         0.7477    0.1630    0.7858 C.3       1 ATP         0.0745
     20 O2'         0.1373   -0.0577    2.0407 O.3       1 ATP        -0.5794
     21 C1'         1.3733    1.5427    0.6747 C.3       1 ATP         0.3824
     22 N9          0.4520    2.5240    0.1767 N.pl3     1 ATP        -0.4324
     23 C8          0.2216    2.8192   -1.0985 C.ar      1 ATP         0.2662
     24 N7         -0.6906    3.7763   -1.2384 N.pl3     1 ATP        -0.4772
     25 C5         -1.0575    4.1037    0.0366 C.ar      1 ATP        -0.1305
     26 C6         -2.0291    5.0943    0.5330 C.ar      1 ATP         0.7186
     27 N6         -2.7093    5.8371   -0.2800 N.2       1 ATP        -0.8115
     28 N1         -2.1051    5.1136    1.9204 N.pl3     1 ATP        -0.8400
     29 C2         -1.3354    4.2774    2.7129 C.ar      1 ATP         0.6671
     30 N3         -0.4707    3.3945    2.2944 N.2       1 ATP        -0.5806
     31 C4         -0.3734    3.3525    0.9220 C.ar      1 ATP         0.2748
     32 HOG3       -3.4573   -1.4997    0.6573 H         1 ATP         0.4327
     33 HOB2       -2.7821   -2.4654   -4.0365 H         1 ATP         0.4701
     34 H5'1        2.8432    0.3119   -2.6398 H         1 ATP         0.0401
     35 H5'2        1.2128   -0.0927   -2.0428 H         1 ATP         0.0401
     36 H4'         3.8044   -0.1397   -0.4040 H         1 ATP         0.1136
     37 H3'         1.6764   -1.7639    0.2728 H         1 ATP         0.0693
     38 HO3'        2.2232   -1.2979    2.3953 H         1 ATP         0.4124
     39 H2'        -0.0011    0.0027    0.0003 H         1 ATP         0.0854
     40 HO2'       -0.1563   -0.9855    2.0596 H         1 ATP         0.4367
     41 H1'         1.7826    1.9024    1.6451 H         1 ATP         0.1343
     42 H8          0.7125    2.3429   -1.9292 H         1 ATP         0.3302
     43 HN62       -3.3217    6.4517    0.2629 H         1 ATP         0.4160
     44 H2         -1.5188    4.4223    3.7890 H         1 ATP         0.0756
     45 H45        -2.7470    5.7627    2.3665 H         1 ATP         0.4587
     46 H46        -1.0305    4.1680   -2.1054 H         1 ATP         0.5254
@<TRIPOS>BOND
     1    1    2 2
     2    1    3 1
     3    1    4 1
     4    1    8 1
     5    4   32 1
     6    5    6 2
     7    5    7 1
     8    5    8 1
     9    5   12 1
    10    7   33 1
    11    9   10 2
    12    9   11 1
    13    9   12 1
    14    9   13 1
    15   13   14 1
    16   14   15 1
    17   14   34 1
    18   14   35 1
    19   15   16 1
    20   15   17 1
    21   15   36 1
    22   16   21 1
    23   17   18 1
    24   17   19 1
    25   17   37 1
    26   18   38 1
    27   19   20 1
    28   19   21 1
    29   19   39 1
    30   20   40 1
    31   21   22 1
    32   21   41 1
    33   22   23 ar
    34   22   31 ar
    35   23   24 ar
    36   23   42 1
    37   24   25 ar
    38   24   46 1
    39   25   26 ar
    40   25   31 ar
    41   26   27 2
    42   26   28 ar
    43   27   43 1
    44   28   29 ar
    45   28   45 1
    46   29   30 ar
    47   29   44 1
    48   30   31 ar
@<TRIPOS>SUBSTRUCTURE
     1 ATP         1 GROUP 0 A     ****
@<TRIPOS>MOLECULE
[[[3,4-dihydroxy-5-(6-imino-7,8-dihydro-1~{H}-purin-8-ylium-9-yl)tetrahydrofuran-2-yl]methoxy-oxido-phosphoryl]oxy-hydroxy-phosphoryl] hydrogen phosphate
   46    48     1     0     0
SMALL
USER_CHARGES

@<TRIPOS>ATOM
      1 PG          5.2824   -1.1598   -8.3882 P.3       1 ATP         1.5595
      2 O1G         4.2053   -1.2457   -9.4466 O.co2     1 ATP        -0.8438
      3 O2G         6.3360   -2.2375   -8.2627 O.co2     1 ATP        -0.8438
      4 O3G         6.0319    0.2842   -8.5275 O.3       1 ATP        -0.7800
      5 PB          3.6349   -1.9126   -6.0608 P.3       1 ATP         1.9223
      6 O1B         2.3582   -2.3332   -6.7266 O.2       1 ATP        -0.8953
      7 O2B         4.6220   -3.1234   -5.6445 O.3       1 ATP        -0.8165
      8 O3B         4.5779   -0.9329   -6.9348 O.3       1 ATP        -0.8247
      9 PA          2.7406    0.3767   -4.4296 P.3       1 ATP         1.6157
     10 O1A         1.2546    0.2225   -4.6703 O.co2     1 ATP        -0.8629
     11 O2A         3.5320    1.4518   -5.1421 O.co2     1 ATP        -0.8629
     12 O3A         3.4692   -1.0595   -4.6990 O.3       1 ATP        -0.8191
     13 O5'         3.0213    0.5153   -2.8245 O.3       1 ATP        -0.5644
     14 C5'         2.2816   -0.2918   -1.9206 C.3       1 ATP         0.2062
     15 C4'         2.7248    0.0226   -0.4980 C.3       1 ATP         0.0971
     16 O4'         2.4697    1.4219   -0.2462 O.3       1 ATP        -0.3662
     17 C3'         1.9404   -0.7419    0.5596 C.3       1 ATP         0.0734
     18 O3'         2.7418   -0.8086    1.7389 O.3       1 ATP        -0.5671
     19 C2'         0.7477    0.1630    0.7858 C.3       1 ATP         0.0745
     20 O2'         0.1373   -0.0577    2.0407 O.3       1 ATP        -0.5794
     21 C1'         1.3733    1.5427    0.6747 C.3       1 ATP         0.3824
     22 N9          0.4520    2.5240    0.1767 N.pl3     1 ATP        -0.4324
     23 C8          0.2216    2.8192   -1.0985 C.ar      1 ATP         0.2662
     24 N7         -0.6906    3.7763   -1.2384 N.pl3     1 ATP        -0.4772
     25 C5         -1.0575    4.1037    0.0366 C.ar      1 ATP        -0.1305
     26 C6         -2.0291    5.0943    0.5330 C.ar      1 ATP         0.7186
     27 N6         -2.7093    5.8371   -0.2800 N.2       1 ATP        -0.8115
     28 N1         -2.1051    5.1136    1.9204 N.pl3     1 ATP        -0.8400
     29 C2         -1.3354    4.2774    2.7129 C.ar      1 ATP         0.6671
     30 N3         -0.4707    3.3945    2.2944 N.2       1 ATP        -0.5806
     31 C4         -0.3734    3.3525    0.9220 C.ar      1 ATP         0.2748
     32 HOG3        6.7614    0.4933   -7.9061 H         1 ATP         0.4327
     33 HOB2        4.9631   -3.7196   -6.3448 H         1 ATP         0.4701
     34 H5'1        1.2163   -0.0770   -2.0471 H         1 ATP         0.0401
     35 H5'2        2.4655   -1.3443   -2.1563 H         1 ATP         0.0401
     36 H4'         3.8044   -0.1397   -0.4040 H         1 ATP         0.1136
     37 H3'         1.6764   -1.7639    0.2728 H         1 ATP         0.0693
     38 HO3'        2.2232   -1.2979    2.3953 H         1 ATP         0.4124
     39 H2'        -0.0011    0.0027    0.0003 H         1 ATP         0.0854
     40 HO2'       -0.6141    0.5574    2.1082 H         1 ATP         0.4367
     41 H1'         1.7826    1.9024    1.6451 H         1 ATP         0.1343
     42 H8          0.7125    2.3429   -1.9292 H         1 ATP         0.3302
     43 HN62       -3.3217    6.4517    0.2629 H         1 ATP         0.4160
     44 H2         -1.5188    4.4223    3.7890 H         1 ATP         0.0756
     45 H45        -2.7470    5.7627    2.3665 H         1 ATP         0.4587
     46 H46        -1.0305    4.1680   -2.1054 H         1 ATP         0.5254
@<TRIPOS>BOND
     1    1    2 2
     2    1    3 1
     3    1    4 1
     4    1    8 1
     5    4   32 1
     6    5    6 2
     7    5    7 1
     8    5    8 1
     9    5   12 1
    10    7   33 1
    11    9   10 2
    12    9   11 1
    13    9   12 1
    14    9   13 1
    15   13   14 1
    16   14   15 1
    17   14   34 1
    18   14   35 1
    19   15   16 1
    20   15   17 1
    21   15   36 1
    22   16   21 1
    23   17   18 1
    24   17   19 1
    25   17   37 1
    26   18   38 1
    27   19   20 1
    28   19   21 1
    29   19   39 1
    30   20   40 1
    31   21   22 1
    32   21   41 1
    33   22   23 ar
    34   22   31 ar
    35   23   24 ar
    36   23   42 1
    37   24   25 ar
    38   24   46 1
    39   25   26 ar
    40   25   31 ar
    41   26   27 2
    42   26   28 ar
    43   27   43 1
    44   28   29 ar
    45   28   45 1
    46   29   30 ar
    47   29   44 1
    48   30   31 ar
@<TRIPOS>SUBSTRUCTURE
     1 ATP         1 GROUP 0 A     ****
@<TRIPOS>MOLECULE
[[[3,4-dihydroxy-5-(6-imino-7,8-dihydro-1~{H}-purin-8-ylium-9-yl)tetrahydrofuran-2-yl]methoxy-oxido-phosphoryl]oxy-hydroxy-phosphoryl] hydrogen phosphate
   46    48     1     0     0
SMALL
USER_CHARGES

@<TRIPOS>ATOM
      1 PG          5.6068   -3.8695   -2.5208 P.3       1 ATP         1.5595
      2 O1G         4.7989   -5.0515   -3.0083 O.co2     1 ATP        -0.8438
      3 O2G         5.0404   -2.9099   -1.4981 O.co2     1 ATP        -0.8438
      4 O3G         7.0472   -4.4146   -1.9783 O.3       1 ATP        -0.7800
      5 PB          5.3153   -2.1589   -4.9055 P.3       1 ATP         1.9223
      6 O1B         6.1548   -1.5088   -5.9652 O.2       1 ATP        -0.8953
      7 O2B         4.2005   -3.1936   -5.4534 O.3       1 ATP        -0.8165
      8 O3B         6.1337   -3.0218   -3.8108 O.3       1 ATP        -0.8247
      9 PA          3.3342   -0.0516   -4.3262 P.3       1 ATP         1.6157
     10 O1A         2.1153   -0.7748   -4.8565 O.co2     1 ATP        -0.8629
     11 O2A         3.9830    1.0583   -5.1244 O.co2     1 ATP        -0.8629
     12 O3A         4.4805   -1.1538   -3.9557 O.3       1 ATP        -0.8191
     13 O5'         3.0213    0.5153   -2.8245 O.3       1 ATP        -0.5644
     14 C5'         2.2816   -0.2918   -1.9206 C.3       1 ATP         0.2062
     15 C4'         2.7248    0.0226   -0.4980 C.3       1 ATP         0.0971
     16 O4'         2.4697    1.4219   -0.2462 O.3       1 ATP        -0.3662
     17 C3'         1.9404   -0.7419    0.5596 C.3       1 ATP         0.0734
     18 O3'         2.7418   -0.8086    1.7389 O.3       1 ATP        -0.5671
     19 C2'         0.7477    0.1630    0.7858 C.3       1 ATP         0.0745
     20 O2'         0.1373   -0.0577    2.0407 O.3       1 ATP        -0.5794
     21 C1'         1.3733    1.5427    0.6747 C.3       1 ATP         0.3824
     22 N9          0.4520    2.5240    0.1767 N.pl3     1 ATP        -0.4324
     23 C8          0.2216    2.8192   -1.0985 C.ar      1 ATP         0.2662
     24 N7         -0.6906    3.7763   -1.2384 N.pl3     1 ATP        -0.4772
     25 C5         -1.0575    4.1037    0.0366 C.ar      1 ATP        -0.1305
     26 C6         -2.0291    5.0943    0.5330 C.ar      1 ATP         0.7186
     27 N6         -2.7093    5.8371   -0.2800 N.2       1 ATP        -0.8115
     28 N1         -2.1051    5.1136    1.9204 N.pl3     1 ATP        -0.8400
     29 C2         -1.3354    4.2774    2.7129 C.ar      1 ATP         0.6671
     30 N3         -0.4707    3.3945    2.2944 N.2       1 ATP        -0.5806
     31 C4         -0.3734    3.3525    0.9220 C.ar      1 ATP         0.2748
     32 HOG3        7.6902   -3.7629   -1.6260 H         1 ATP         0.4327
     33 HOB2        3.5082   -2.8649   -6.0658 H         1 ATP         0.4701
     34 H5'1        1.2163   -0.0770   -2.0471 H         1 ATP         0.0401
     35 H5'2        2.4655   -1.3443   -2.1563 H         1 ATP         0.0401
     36 H4'         3.8044   -0.1397   -0.4040 H         1 ATP         0.1136
     37 H3'         1.6764   -1.7639    0.2728 H         1 ATP         0.0693
     38 HO3'        2.2232   -1.2979    2.3953 H         1 ATP         0.4124
     39 H2'        -0.0011    0.0027    0.0003 H         1 ATP         0.0854
     40 HO2'       -0.6141    0.5574    2.1082 H         1 ATP         0.4367
     41 H1'         1.7826    1.9024    1.6451 H         1 ATP         0.1343
     42 H8          0.7125    2.3429   -1.9292 H         1 ATP         0.3302
     43 HN62       -3.3217    6.4517    0.2629 H         1 ATP         0.4160
     44 H2         -1.5188    4.4223    3.7890 H         1 ATP         0.0756
     45 H45        -2.7470    5.7627    2.3665 H         1 ATP         0.4587
     46 H46        -1.0305    4.1680   -2.1054 H         1 ATP         0.5254
@<TRIPOS>BOND
     1    1    2 2
     2    1    3 1
     3    1    4 1
     4    1    8 1
     5    4   32 1
     6    5    6 2
     7    5    7 1
     8    5    8 1
     9    5   12 1
    10    7   33 1
    11    9   10 2
    12    9   11 1
    13    9   12 1
    14    9   13 1
    15   13   14 1
    16   14   15 1
    17   14   34 1
    18   14   35 1
    19   15   16 1
    20   15   17 1
    21   15   36 1
    22   16   21 1
    23   17   18 1
    24   17   19 1
    25   17   37 1
    26   18   38 1
    27   19   20 1
    28   19   21 1
    29   19   39 1
    30   20   40 1
    31   21   22 1
    32   21   41 1
    33   22   23 ar
    34   22   31 ar
    35   23   24 ar
    36   23   42 1
    37   24   25 ar
    38   24   46 1
    39   25   26 ar
    40   25   31 ar
    41   26   27 2
    42   26   28 ar
    43   27   43 1
    44   28   29 ar
    45   28   45 1
    46   29   30 ar
    47   29   44 1
    48   30   31 ar
@<TRIPOS>SUBSTRUCTURE
     1 ATP         1 GROUP 0 A     ****
@<TRIPOS>MOLECULE
[[[3,4-dihydroxy-5-(6-imino-7,8-dihydro-1~{H}-purin-8-ylium-9-yl)tetrahydrofuran-2-yl]methoxy-oxido-phosphoryl]oxy-hydroxy-phosphoryl] hydrogen phosphate
   46    48     1     0     0
SMALL
USER_CHARGES

@<TRIPOS>ATOM
      1 PG          4.2057   -4.3509   -4.6020 P.3       1 ATP         1.5595
      2 O1G         4.6618   -5.5218   -5.4437 O.co2     1 ATP        -0.8438
      3 O2G         2.7350   -4.0383   -4.4377 O.co2     1 ATP        -0.8438
      4 O3G         4.8757   -4.4864   -3.1191 O.3       1 ATP        -0.7800
      5 PB          5.0039   -1.5143   -4.4813 P.3       1 ATP         1.9223
      6 O1B         5.5215   -1.4129   -3.0770 O.2       1 ATP        -0.8953
      7 O2B         5.8244   -0.6552   -5.5778 O.3       1 ATP        -0.8165
      8 O3B         4.9825   -3.0067   -5.1019 O.3       1 ATP        -0.8247
      9 PA          2.7406    0.3767   -4.4296 P.3       1 ATP         1.6157
     10 O1A         1.2546    0.2225   -4.6703 O.co2     1 ATP        -0.8629
     11 O2A         3.5320    1.4518   -5.1421 O.co2     1 ATP        -0.8629
     12 O3A         3.4692   -1.0595   -4.6990 O.3       1 ATP        -0.8191
     13 O5'         3.0213    0.5153   -2.8245 O.3       1 ATP        -0.5644
     14 C5'         2.2816   -0.2918   -1.9206 C.3       1 ATP         0.2062
     15 C4'         2.7248    0.0226   -0.4980 C.3       1 ATP         0.0971
     16 O4'         2.4697    1.4219   -0.2462 O.3       1 ATP        -0.3662
     17 C3'         1.9404   -0.7419    0.5596 C.3       1 ATP         0.0734
     18 O3'         2.7418   -0.8086    1.7389 O.3       1 ATP        -0.5671
     19 C2'         0.7477    0.1630    0.7858 C.3       1 ATP         0.0745
     20 O2'         0.1373   -0.0577    2.0407 O.3       1 ATP        -0.5794
     21 C1'         1.3733    1.5427    0.6747 C.3       1 ATP         0.3824
     22 N9          0.4520    2.5240    0.1767 N.pl3     1 ATP        -0.4324
     23 C8          0.2216    2.8192   -1.0985 C.ar      1 ATP         0.2662
     24 N7         -0.6906    3.7763   -1.2384 N.pl3     1 ATP        -0.4772
     25 C5         -1.0575    4.1037    0.0366 C.ar      1 ATP        -0.1305
     26 C6         -2.0291    5.0943    0.5330 C.ar      1 ATP         0.7186
     27 N6         -2.7093    5.8371   -0.2800 N.2       1 ATP        -0.8115
     28 N1         -2.1051    5.1136    1.9204 N.pl3     1 ATP        -0.8400
     29 C2         -1.3354    4.2774    2.7129 C.ar      1 ATP         0.6671
     30 N3         -0.4707    3.3945    2.2944 N.2       1 ATP        -0.5806
     31 C4         -0.3734    3.3525    0.9220 C.ar      1 ATP         0.2748
     32 HOG3        4.6743   -3.7968   -2.4512 H         1 ATP         0.4327
     33 HOB2        6.7768   -0.8463   -5.7146 H         1 ATP         0.4701
     34 H5'1        1.2163   -0.0770   -2.0471 H         1 ATP         0.0401
     35 H5'2        2.4655   -1.3443   -2.1563 H         1 ATP         0.0401
     36 H4'         3.8044   -0.1397   -0.4040 H         1 ATP         0.1136
     37 H3'         1.6764   -1.7639    0.2728 H         1 ATP         0.0693
     38 HO3'        3.5554   -1.2733    1.4914 H         1 ATP         0.4124
     39 H2'        -0.0011    0.0027    0.0003 H         1 ATP         0.0854
     40 HO2'       -0.1563   -0.9855    2.0596 H         1 ATP         0.4367
     41 H1'         1.7826    1.9024    1.6451 H         1 ATP         0.1343
     42 H8          0.7125    2.3429   -1.9292 H         1 ATP         0.3302
     43 HN62       -3.3217    6.4517    0.2629 H         1 ATP         0.4160
     44 H2         -1.5188    4.4223    3.7890 H         1 ATP         0.0756
     45 H45        -2.7470    5.7627    2.3665 H         1 ATP         0.4587
     46 H46        -1.0305    4.1680   -2.1054 H         1 ATP         0.5254
@<TRIPOS>BOND
     1    1    2 2
     2    1    3 1
     3    1    4 1
     4    1    8 1
     5    4   32 1
     6    5    6 2
     7    5    7 1
     8    5    8 1
     9    5   12 1
    10    7   33 1
    11    9   10 2
    12    9   11 1
    13    9   12 1
    14    9   13 1
    15   13   14 1
    16   14   15 1
    17   14   34 1
    18   14   35 1
    19   15   16 1
    20   15   17 1
    21   15   36 1
    22   16   21 1
    23   17   18 1
    24   17   19 1
    25   17   37 1
    26   18   38 1
    27   19   20 1
    28   19   21 1
    29   19   39 1
    30   20   40 1
    31   21   22 1
    32   21   41 1
    33   22   23 ar
    34   22   31 ar
    35   23   24 ar
    36   23   42 1
    37   24   25 ar
    38   24   46 1
    39   25   26 ar
    40   25   31 ar
    41   26   27 2
    42   26   28 ar
    43   27   43 1
    44   28   29 ar
    45   28   45 1
    46   29   30 ar
    47   29   44 1
    48   30   31 ar
@<TRIPOS>SUBSTRUCTURE
     1 ATP         1 GROUP 0 A     ****
@<TRIPOS>MOLECULE
[[[3,4-dihydroxy-5-(6-imino-7,8-dihydro-1~{H}-purin-8-ylium-9-yl)tetrahydrofuran-2-yl]methoxy-oxido-phosphoryl]oxy-hydroxy-phosphoryl] hydrogen phosphate
   46    48     1     0     0
SMALL
USER_CHARGES

@<TRIPOS>ATOM
      1 PG          6.3666   -1.8297   -1.8849 P.3       1 ATP         1.5595
      2 O1G         6.7485   -3.2669   -2.1612 O.co2     1 ATP        -0.8438
      3 O2G         6.0487   -1.3664   -0.4807 O.co2     1 ATP        -0.8438
      4 O3G         7.5249   -0.8579   -2.5016 O.3       1 ATP        -0.7800
      5 PB          5.0039   -1.5143   -4.4813 P.3       1 ATP         1.9223
      6 O1B         6.0291   -0.7455   -5.2612 O.2       1 ATP        -0.8953
      7 O2B         4.9821   -3.1064   -4.7612 O.3       1 ATP        -0.8165
      8 O3B         5.1397   -1.4097   -2.8740 O.3       1 ATP        -0.8247
      9 PA          2.7406    0.3767   -4.4296 P.3       1 ATP         1.6157
     10 O1A         1.2546    0.2225   -4.6703 O.co2     1 ATP        -0.8629
     11 O2A         3.5320    1.4518   -5.1421 O.co2     1 ATP        -0.8629
     12 O3A         3.4692   -1.0595   -4.6990 O.3       1 ATP        -0.8191
     13 O5'         3.0213    0.5153   -2.8245 O.3       1 ATP        -0.5644
     14 C5'         2.2816   -0.2918   -1.9206 C.3       1 ATP         0.2062
     15 C4'         2.7248    0.0226   -0.4980 C.3       1 ATP         0.0971
     16 O4'         2.4697    1.4219   -0.2462 O.3       1 ATP        -0.3662
     17 C3'         1.9404   -0.7419    0.5596 C.3       1 ATP         0.0734
     18 O3'         2.7418   -0.8086    1.7389 O.3       1 ATP        -0.5671
     19 C2'         0.7477    0.1630    0.7858 C.3       1 ATP         0.0745
     20 O2'         0.1373   -0.0577    2.0407 O.3       1 ATP        -0.5794
     21 C1'         1.3733    1.5427    0.6747 C.3       1 ATP         0.3824
     22 N9          0.4520    2.5240    0.1767 N.pl3     1 ATP        -0.4324
     23 C8          0.2216    2.8192   -1.0985 C.ar      1 ATP         0.2662
     24 N7         -0.6906    3.7763   -1.2384 N.pl3     1 ATP        -0.4772
     25 C5         -1.0575    4.1037    0.0366 C.ar      1 ATP        -0.1305
     26 C6         -2.0291    5.0943    0.5330 C.ar      1 ATP         0.7186
     27 N6         -2.7093    5.8371   -0.2800 N.2       1 ATP        -0.8115
     28 N1         -2.1051    5.1136    1.9204 N.pl3     1 ATP        -0.8400
     29 C2         -1.3354    4.2774    2.7129 C.ar      1 ATP         0.6671
     30 N3         -0.4707    3.3945    2.2944 N.2       1 ATP        -0.5806
     31 C4         -0.3734    3.3525    0.9220 C.ar      1 ATP         0.2748
     32 HOG3        7.4214    0.1125   -2.4026 H         1 ATP         0.4327
     33 HOB2        5.7900   -3.6316   -4.5776 H         1 ATP         0.4701
     34 H5'1        1.2163   -0.0770   -2.0471 H         1 ATP         0.0401
     35 H5'2        2.4655   -1.3443   -2.1563 H         1 ATP         0.0401
     36 H4'         3.8044   -0.1397   -0.4040 H         1 ATP         0.1136
     37 H3'         1.6764   -1.7639    0.2728 H         1 ATP         0.0693
     38 HO3'        2.2232   -1.2979    2.3953 H         1 ATP         0.4124
     39 H2'        -0.0011    0.0027    0.0003 H         1 ATP         0.0854
     40 HO2'       -0.6141    0.5574    2.1082 H         1 ATP         0.4367
     41 H1'         1.7826    1.9024    1.6451 H         1 ATP         0.1343
     42 H8          0.7125    2.3429   -1.9292 H         1 ATP         0.3302
     43 HN62       -3.3217    6.4517    0.2629 H         1 ATP         0.4160
     44 H2         -1.5188    4.4223    3.7890 H         1 ATP         0.0756
     45 H45        -2.7470    5.7627    2.3665 H         1 ATP         0.4587
     46 H46        -1.0305    4.1680   -2.1054 H         1 ATP         0.5254
@<TRIPOS>BOND
     1    1    2 2
     2    1    3 1
     3    1    4 1
     4    1    8 1
     5    4   32 1
     6    5    6 2
     7    5    7 1
     8    5    8 1
     9    5   12 1
    10    7   33 1
    11    9   10 2
    12    9   11 1
    13    9   12 1
    14    9   13 1
    15   13   14 1
    16   14   15 1
    17   14   34 1
    18   14   35 1
    19   15   16 1
    20   15   17 1
    21   15   36 1
    22   16   21 1
    23   17   18 1
    24   17   19 1
    25   17   37 1
    26   18   38 1
    27   19   20 1
    28   19   21 1
    29   19   39 1
    30   20   40 1
    31   21   22 1
    32   21   41 1
    33   22   23 ar
    34   22   31 ar
    35   23   24 ar
    36   23   42 1
    37   24   25 ar
    38   24   46 1
    39   25   26 ar
    40   25   31 ar
    41   26   27 2
    42   26   28 ar
    43   27   43 1
    44   28   29 ar
    45   28   45 1
    46   29   30 ar
    47   29   44 1
    48   30   31 ar
@<TRIPOS>SUBSTRUCTURE
     1 ATP         1 GROUP 0 A     ****
@<TRIPOS>MOLECULE
[[[3,4-dihydroxy-5-(6-imino-7,8-dihydro-1~{H}-purin-8-ylium-9-yl)tetrahydrofuran-2-yl]methoxy-oxido-phosphoryl]oxy-hydroxy-phosphoryl] hydrogen phosphate
   46    48     1     0     0
SMALL
USER_CHARGES

@<TRIPOS>ATOM
      1 PG         -1.7247   -6.1545   -3.0002 P.3       1 ATP         1.5595
      2 O1G        -2.3957   -6.0758   -4.3534 O.co2     1 ATP        -0.8438
      3 O2G        -2.5335   -6.3934   -1.7447 O.co2     1 ATP        -0.8438
      4 O3G        -0.5390   -7.2747   -3.0740 O.3       1 ATP        -0.7800
      5 PB         -1.2120   -3.2745   -2.6256 P.3       1 ATP         1.9223
      6 O1B        -1.9701   -2.6873   -3.7792 O.2       1 ATP        -0.8953
      7 O2B        -1.9844   -3.2334   -1.2060 O.3       1 ATP        -0.8165
      8 O3B        -0.7986   -4.8283   -2.7919 O.3       1 ATP        -0.8247
      9 PA          1.5543   -2.4556   -3.2404 P.3       1 ATP         1.6157
     10 O1A         1.2372   -1.5511   -4.4114 O.co2     1 ATP        -0.8629
     11 O2A         2.1275   -3.8380   -3.4641 O.co2     1 ATP        -0.8629
     12 O3A         0.2206   -2.5984   -2.3094 O.3       1 ATP        -0.8191
     13 O5'         2.5245   -1.6648   -2.1878 O.3       1 ATP        -0.5644
     14 C5'         2.2816   -0.2918   -1.9206 C.3       1 ATP         0.2062
     15 C4'         2.7248    0.0226   -0.4980 C.3       1 ATP         0.0971
     16 O4'         2.4697    1.4219   -0.2462 O.3       1 ATP        -0.3662
     17 C3'         1.9404   -0.7419    0.5596 C.3       1 ATP         0.0734
     18 O3'         2.7418   -0.8086    1.7389 O.3       1 ATP        -0.5671
     19 C2'         0.7477    0.1630    0.7858 C.3       1 ATP         0.0745
     20 O2'         0.1373   -0.0577    2.0407 O.3       1 ATP        -0.5794
     21 C1'         1.3733    1.5427    0.6747 C.3       1 ATP         0.3824
     22 N9          0.4520    2.5240    0.1767 N.pl3     1 ATP        -0.4324
     23 C8          0.2216    2.8192   -1.0985 C.ar      1 ATP         0.2662
     24 N7         -0.6906    3.7763   -1.2384 N.pl3     1 ATP        -0.4772
     25 C5         -1.0575    4.1037    0.0366 C.ar      1 ATP        -0.1305
     26 C6         -2.0291    5.0943    0.5330 C.ar      1 ATP         0.7186
     27 N6         -2.7093    5.8371   -0.2800 N.2       1 ATP        -0.8115
     28 N1         -2.1051    5.1136    1.9204 N.pl3     1 ATP        -0.8400
     29 C2         -1.3354    4.2774    2.7129 C.ar      1 ATP         0.6671
     30 N3         -0.4707    3.3945    2.2944 N.2       1 ATP        -0.5806
     31 C4         -0.3734    3.3525    0.9220 C.ar      1 ATP         0.2748
     32 HOG3       -0.0062   -7.4442   -2.2680 H         1 ATP         0.4327
     33 HOB2       -2.2484   -2.3647   -0.8344 H         1 ATP         0.4701
     34 H5'1        2.8432    0.3119   -2.6398 H         1 ATP         0.0401
     35 H5'2        1.2128   -0.0927   -2.0428 H         1 ATP         0.0401
     36 H4'         3.8044   -0.1397   -0.4040 H         1 ATP         0.1136
     37 H3'         1.6764   -1.7639    0.2728 H         1 ATP         0.0693
     38 HO3'        2.2232   -1.2979    2.3953 H         1 ATP         0.4124
     39 H2'        -0.0011    0.0027    0.0003 H         1 ATP         0.0854
     40 HO2'       -0.6141    0.5574    2.1082 H         1 ATP         0.4367
     41 H1'         1.7826    1.9024    1.6451 H         1 ATP         0.1343
     42 H8          0.7125    2.3429   -1.9292 H         1 ATP         0.3302
     43 HN62       -3.3217    6.4517    0.2629 H         1 ATP         0.4160
     44 H2         -1.5188    4.4223    3.7890 H         1 ATP         0.0756
     45 H45        -2.7470    5.7627    2.3665 H         1 ATP         0.4587
     46 H46        -1.0305    4.1680   -2.1054 H         1 ATP         0.5254
@<TRIPOS>BOND
     1    1    2 2
     2    1    3 1
     3    1    4 1
     4    1    8 1
     5    4   32 1
     6    5    6 2
     7    5    7 1
     8    5    8 1
     9    5   12 1
    10    7   33 1
    11    9   10 2
    12    9   11 1
    13    9   12 1
    14    9   13 1
    15   13   14 1
    16   14   15 1
    17   14   34 1
    18   14   35 1
    19   15   16 1
    20   15   17 1
    21   15   36 1
    22   16   21 1
    23   17   18 1
    24   17   19 1
    25   17   37 1
    26   18   38 1
    27   19   20 1
    28   19   21 1
    29   19   39 1
    30   20   40 1
    31   21   22 1
    32   21   41 1
    33   22   23 ar
    34   22   31 ar
    35   23   24 ar
    36   23   42 1
    37   24   25 ar
    38   24   46 1
    39   25   26 ar
    40   25   31 ar
    41   26   27 2
    42   26   28 ar
    43   27   43 1
    44   28   29 ar
    45   28   45 1
    46   29   30 ar
    47   29   44 1
    48   30   31 ar
@<TRIPOS>SUBSTRUCTURE
     1 ATP         1 GROUP 0 A     ****
@<TRIPOS>MOLECULE
[[[3,4-dihydroxy-5-(6-imino-7,8-dihydro-1~{H}-purin-8-ylium-9-yl)tetrahydrofuran-2-yl]methoxy-oxido-phosphoryl]oxy-hydroxy-phosphoryl] hydrogen phosphate
   46    48     1     0     0
SMALL
USER_CHARGES

@<TRIPOS>ATOM
      1 PG         -1.1809    2.5127   -6.4609 P.3       1 ATP         1.5595
      2 O1G        -0.6552    2.9507   -7.8098 O.co2     1 ATP        -0.8438
      3 O2G        -2.1337    3.3873   -5.6771 O.co2     1 ATP        -0.8438
      4 O3G        -1.8495    1.0317   -6.6214 O.3       1 ATP        -0.7800
      5 PB          1.2557    3.0281   -4.8813 P.3       1 ATP         1.9223
      6 O1B         2.1115    3.7439   -5.8840 O.2       1 ATP        -0.8953
      7 O2B         0.4793    3.9856   -3.8353 O.3       1 ATP        -0.8165
      8 O3B         0.0802    2.1121   -5.5073 O.3       1 ATP        -0.8247
      9 PA          2.8619    0.6169   -4.3269 P.3       1 ATP         1.6157
     10 O1A         4.0991    1.0216   -5.0986 O.co2     1 ATP        -0.8629
     11 O2A         1.8962   -0.4016   -4.8925 O.co2     1 ATP        -0.8629
     12 O3A         2.0200    1.9612   -3.9394 O.3       1 ATP        -0.8191
     13 O5'         3.2903    0.1346   -2.8241 O.3       1 ATP        -0.5644
     14 C5'         2.2816   -0.2918   -1.9206 C.3       1 ATP         0.2062
     15 C4'         2.7248    0.0226   -0.4980 C.3       1 ATP         0.0971
     16 O4'         2.4697    1.4219   -0.2462 O.3       1 ATP        -0.3662
     17 C3'         1.9404   -0.7419    0.5596 C.3       1 ATP         0.0734
     18 O3'         2.7418   -0.8086    1.7389 O.3       1 ATP        -0.5671
     19 C2'         0.7477    0.1630    0.7858 C.3       1 ATP         0.0745
     20 O2'         0.1373   -0.0577    2.0407 O.3       1 ATP        -0.5794
     21 C1'         1.3733    1.5427    0.6747 C.3       1 ATP         0.3824
     22 N9          0.4520    2.5240    0.1767 N.pl3     1 ATP        -0.4324
     23 C8         -0.2004    2.4829   -0.9804 C.ar      1 ATP         0.2662
     24 N7         -0.9830    3.5431   -1.1568 N.pl3     1 ATP        -0.4772
     25 C5         -0.8095    4.3012   -0.0331 C.ar      1 ATP        -0.1305
     26 C6         -1.4065    5.5904    0.3585 C.ar      1 ATP         0.7186
     27 N6         -2.2501    6.2030   -0.4084 N.2       1 ATP        -0.8115
     28 N1         -0.9585    6.0272    1.5994 N.pl3     1 ATP        -0.8400
     29 C2         -0.0508    5.3009    2.3532 C.ar      1 ATP         0.6671
     30 N3          0.4890    4.1592    2.0257 N.2       1 ATP        -0.5806
     31 C4          0.0637    3.7006    0.7995 C.ar      1 ATP         0.2748
     32 HOG3       -2.2386    0.6068   -5.8275 H         1 ATP         0.4327
     33 HOB2        1.0038    4.5722   -3.2496 H         1 ATP         0.4701
     34 H5'1        1.3514    0.2330   -2.1577 H         1 ATP         0.0401
     35 H5'2        2.1280   -1.3678   -2.0460 H         1 ATP         0.0401
     36 H4'         3.8044   -0.1397   -0.4040 H         1 ATP         0.1136
     37 H3'         1.6764   -1.7639    0.2728 H         1 ATP         0.0693
     38 HO3'        2.2232   -1.2979    2.3953 H         1 ATP         0.4124
     39 H2'        -0.0011    0.0027    0.0003 H         1 ATP         0.0854
     40 HO2'       -0.6141    0.5574    2.1082 H         1 ATP         0.4367
     41 H1'         1.7826    1.9024    1.6451 H         1 ATP         0.1343
     42 H8         -0.1116    1.6863   -1.6984 H         1 ATP         0.3302
     43 HN62       -2.5420    7.0730    0.0447 H         1 ATP         0.4160
     44 H2          0.1969    5.7893    3.3086 H         1 ATP         0.0756
     45 H45        -1.3097    6.9080    1.9642 H         1 ATP         0.4587
     46 H46        -1.5735    3.7351   -1.9538 H         1 ATP         0.5254
@<TRIPOS>BOND
     1    1    2 2
     2    1    3 1
     3    1    4 1
     4    1    8 1
     5    4   32 1
     6    5    6 2
     7    5    7 1
     8    5    8 1
     9    5   12 1
    10    7   33 1
    11    9   10 2
    12    9   11 1
    13    9   12 1
    14    9   13 1
    15   13   14 1
    16   14   15 1
    17   14   34 1
    18   14   35 1
    19   15   16 1
    20   15   17 1
    21   15   36 1
    22   16   21 1
    23   17   18 1
    24   17   19 1
    25   17   37 1
    26   18   38 1
    27   19   20 1
    28   19   21 1
    29   19   39 1
    30   20   40 1
    31   21   22 1
    32   21   41 1
    33   22   23 ar
    34   22   31 ar
    35   23   24 ar
    36   23   42 1
    37   24   25 ar
    38   24   46 1
    39   25   26 ar
    40   25   31 ar
    41   26   27 2
    42   26   28 ar
    43   27   43 1
    44   28   29 ar
    45   28   45 1
    46   29   30 ar
    47   29   44 1
    48   30   31 ar
@<TRIPOS>SUBSTRUCTURE
     1 ATP         1 GROUP 0 A     ****
@<TRIPOS>MOLECULE
[[[3,4-dihydroxy-5-(6-imino-7,8-dihydro-1~{H}-purin-8-ylium-9-yl)tetrahydrofuran-2-yl]methoxy-oxido-phosphoryl]oxy-hydroxy-phosphoryl] hydrogen phosphate
   46    48     1     0     0
SMALL
USER_CHARGES

@<TRIPOS>ATOM
      1 PG          1.4639   -2.6662   -7.9091 P.3       1 ATP         1.5595
      2 O1G         1.7083   -4.1587   -7.9254 O.co2     1 ATP        -0.8438
      3 O2G         1.8691   -1.7997   -9.0806 O.co2     1 ATP        -0.8438
      4 O3G        -0.1162   -2.4033   -7.5920 O.3       1 ATP        -0.7800
      5 PB          3.6349   -1.9126   -6.0608 P.3       1 ATP         1.9223
      6 O1B         4.3762   -3.2103   -5.9315 O.2       1 ATP        -0.8953
      7 O2B         4.2757   -0.8584   -7.1056 O.3       1 ATP        -0.8165
      8 O3B         2.0972   -2.0421   -6.5418 O.3       1 ATP        -0.8247
      9 PA          2.7406    0.3767   -4.4296 P.3       1 ATP         1.6157
     10 O1A         1.2546    0.2225   -4.6703 O.co2     1 ATP        -0.8629
     11 O2A         3.5320    1.4518   -5.1421 O.co2     1 ATP        -0.8629
     12 O3A         3.4692   -1.0595   -4.6990 O.3       1 ATP        -0.8191
     13 O5'         3.0213    0.5153   -2.8245 O.3       1 ATP        -0.5644
     14 C5'         2.2816   -0.2918   -1.9206 C.3       1 ATP         0.2062
     15 C4'         2.7248    0.0226   -0.4980 C.3       1 ATP         0.0971
     16 O4'         2.4697    1.4219   -0.2462 O.3       1 ATP        -0.3662
     17 C3'         1.9404   -0.7419    0.5596 C.3       1 ATP         0.0734
     18 O3'         2.7418   -0.8086    1.7389 O.3       1 ATP        -0.5671
     19 C2'         0.7477    0.1630    0.7858 C.3       1 ATP         0.0745
     20 O2'         0.1373   -0.0577    2.0407 O.3       1 ATP        -0.5794
     21 C1'         1.3733    1.5427    0.6747 C.3       1 ATP         0.3824
     22 N9          0.4520    2.5240    0.1767 N.pl3     1 ATP        -0.4324
     23 C8          0.2216    2.8192   -1.0985 C.ar      1 ATP         0.2662
     24 N7         -0.6906    3.7763   -1.2384 N.pl3     1 ATP        -0.4772
     25 C5         -1.0575    4.1037    0.0366 C.ar      1 ATP        -0.1305
     26 C6         -2.0291    5.0943    0.5330 C.ar      1 ATP         0.7186
     27 N6         -2.7093    5.8371   -0.2800 N.2       1 ATP        -0.8115
     28 N1         -2.1051    5.1136    1.9204 N.pl3     1 ATP        -0.8400
     29 C2         -1.3354    4.2774    2.7129 C.ar      1 ATP         0.6671
     30 N3         -0.4707    3.3945    2.2944 N.2       1 ATP        -0.5806
     31 C4         -0.3734    3.3525    0.9220 C.ar      1 ATP         0.2748
     32 HOG3       -0.4354   -1.4768   -7.5476 H         1 ATP         0.4327
     33 HOB2        4.3647   -1.1182   -8.0474 H         1 ATP         0.4701
     34 H5'1        1.2163   -0.0770   -2.0471 H         1 ATP         0.0401
     35 H5'2        2.4655   -1.3443   -2.1563 H         1 ATP         0.0401
     36 H4'         3.8044   -0.1397   -0.4040 H         1 ATP         0.1136
     37 H3'         1.6764   -1.7639    0.2728 H         1 ATP         0.0693
     38 HO3'        2.2232   -1.2979    2.3953 H         1 ATP         0.4124
     39 H2'        -0.0011    0.0027    0.0003 H         1 ATP         0.0854
     40 HO2'       -0.6141    0.5574    2.1082 H         1 ATP         0.4367
     41 H1'         1.7826    1.9024    1.6451 H         1 ATP         0.1343
     42 H8          0.7125    2.3429   -1.9292 H         1 ATP         0.3302
     43 HN62       -3.3217    6.4517    0.2629 H         1 ATP         0.4160
     44 H2         -1.5188    4.4223    3.7890 H         1 ATP         0.0756
     45 H45        -2.7470    5.7627    2.3665 H         1 ATP         0.4587
     46 H46        -1.0305    4.1680   -2.1054 H         1 ATP         0.5254
@<TRIPOS>BOND
     1    1    2 2
     2    1    3 1
     3    1    4 1
     4    1    8 1
     5    4   32 1
     6    5    6 2
     7    5    7 1
     8    5    8 1
     9    5   12 1
    10    7   33 1
    11    9   10 2
    12    9   11 1
    13    9   12 1
    14    9   13 1
    15   13   14 1
    16   14   15 1
    17   14   34 1
    18   14   35 1
    19   15   16 1
    20   15   17 1
    21   15   36 1
    22   16   21 1
    23   17   18 1
    24   17   19 1
    25   17   37 1
    26   18   38 1
    27   19   20 1
    28   19   21 1
    29   19   39 1
    30   20   40 1
    31   21   22 1
    32   21   41 1
    33   22   23 ar
    34   22   31 ar
    35   23   24 ar
    36   23   42 1
    37   24   25 ar
    38   24   46 1
    39   25   26 ar
    40   25   31 ar
    41   26   27 2
    42   26   28 ar
    43   27   43 1
    44   28   29 ar
    45   28   45 1
    46   29   30 ar
    47   29   44 1
    48   30   31 ar
@<TRIPOS>SUBSTRUCTURE
     1 ATP         1 GROUP 0 A     ****
@<TRIPOS>MOLECULE
[[[3,4-dihydroxy-5-(6-imino-7,8-dihydro-1~{H}-purin-8-ylium-9-yl)tetrahydrofuran-2-yl]methoxy-oxido-phosphoryl]oxy-hydroxy-phosphoryl] hydrogen phosphate
   46    48     1     0     0
SMALL
USER_CHARGES

@<TRIPOS>ATOM
      1 PG          4.9385    1.0740   -5.9984 P.3       1 ATP         1.5595
      2 O1G         4.7634    1.3227   -4.5167 O.co2     1 ATP        -0.8438
      3 O2G         4.1329    1.8493   -7.0168 O.co2     1 ATP        -0.8438
      4 O3G         6.5222    1.2258   -6.3657 O.3       1 ATP        -0.7800
      5 PB          3.4742   -1.4806   -6.1639 P.3       1 ATP         1.9223
      6 O1B         2.3082   -1.0971   -7.0263 O.2       1 ATP        -0.8953
      7 O2B         4.0662   -2.9612   -6.4305 O.3       1 ATP        -0.8165
      8 O3B         4.7694   -0.5218   -6.2897 O.3       1 ATP        -0.8247
      9 PA          2.1371   -2.2715   -3.6563 P.3       1 ATP         1.6157
     10 O1A         2.4857   -3.7434   -3.7019 O.co2     1 ATP        -0.8629
     11 O2A         0.7457   -1.7949   -4.0121 O.co2     1 ATP        -0.8629
     12 O3A         3.2103   -1.4478   -4.5705 O.3       1 ATP        -0.8191
     13 O5'         2.5245   -1.6648   -2.1878 O.3       1 ATP        -0.5644
     14 C5'         2.2816   -0.2918   -1.9206 C.3       1 ATP         0.2062
     15 C4'         2.7248    0.0226   -0.4980 C.3       1 ATP         0.0971
     16 O4'         2.4697    1.4219   -0.2462 O.3       1 ATP        -0.3662
     17 C3'         1.9404   -0.7419    0.5596 C.3       1 ATP         0.0734
     18 O3'         2.7418   -0.8086    1.7389 O.3       1 ATP        -0.5671
     19 C2'         0.7477    0.1630    0.7858 C.3       1 ATP         0.0745
     20 O2'         0.1373   -0.0577    2.0407 O.3       1 ATP        -0.5794
     21 C1'         1.3733    1.5427    0.6747 C.3       1 ATP         0.3824
     22 N9          0.4520    2.5240    0.1767 N.pl3     1 ATP        -0.4324
     23 C8          0.2216    2.8192   -1.0985 C.ar      1 ATP         0.2662
     24 N7         -0.6906    3.7763   -1.2384 N.pl3     1 ATP        -0.4772
     25 C5         -1.0575    4.1037    0.0366 C.ar      1 ATP        -0.1305
     26 C6         -2.0291    5.0943    0.5330 C.ar      1 ATP         0.7186
     27 N6         -2.7093    5.8371   -0.2800 N.2       1 ATP        -0.8115
     28 N1         -2.1051    5.1136    1.9204 N.pl3     1 ATP        -0.8400
     29 C2         -1.3354    4.2774    2.7129 C.ar      1 ATP         0.6671
     30 N3         -0.4707    3.3945    2.2944 N.2       1 ATP        -0.5806
     31 C4         -0.3734    3.3525    0.9220 C.ar      1 ATP         0.2748
     32 HOG3        6.8002    1.0928   -7.2970 H         1 ATP         0.4327
     33 HOB2        3.4782   -3.7366   -6.3069 H         1 ATP         0.4701
     34 H5'1        2.8432    0.3119   -2.6398 H         1 ATP         0.0401
     35 H5'2        1.2128   -0.0927   -2.0428 H         1 ATP         0.0401
     36 H4'         3.8044   -0.1397   -0.4040 H         1 ATP         0.1136
     37 H3'         1.6764   -1.7639    0.2728 H         1 ATP         0.0693
     38 HO3'        2.2232   -1.2979    2.3953 H         1 ATP         0.4124
     39 H2'        -0.0011    0.0027    0.0003 H         1 ATP         0.0854
     40 HO2'       -0.6141    0.5574    2.1082 H         1 ATP         0.4367
     41 H1'         1.7826    1.9024    1.6451 H         1 ATP         0.1343
     42 H8          0.7125    2.3429   -1.9292 H         1 ATP         0.3302
     43 HN62       -3.3217    6.4517    0.2629 H         1 ATP         0.4160
     44 H2         -1.5188    4.4223    3.7890 H         1 ATP         0.0756
     45 H45        -2.7470    5.7627    2.3665 H         1 ATP         0.4587
     46 H46        -1.0305    4.1680   -2.1054 H         1 ATP         0.5254
@<TRIPOS>BOND
     1    1    2 2
     2    1    3 1
     3    1    4 1
     4    1    8 1
     5    4   32 1
     6    5    6 2
     7    5    7 1
     8    5    8 1
     9    5   12 1
    10    7   33 1
    11    9   10 2
    12    9   11 1
    13    9   12 1
    14    9   13 1
    15   13   14 1
    16   14   15 1
    17   14   34 1
    18   14   35 1
    19   15   16 1
    20   15   17 1
    21   15   36 1
    22   16   21 1
    23   17   18 1
    24   17   19 1
    25   17   37 1
    26   18   38 1
    27   19   20 1
    28   19   21 1
    29   19   39 1
    30   20   40 1
    31   21   22 1
    32   21   41 1
    33   22   23 ar
    34   22   31 ar
    35   23   24 ar
    36   23   42 1
    37   24   25 ar
    38   24   46 1
    39   25   26 ar
    40   25   31 ar
    41   26   27 2
    42   26   28 ar
    43   27   43 1
    44   28   29 ar
    45   28   45 1
    46   29   30 ar
    47   29   44 1
    48   30   31 ar
@<TRIPOS>SUBSTRUCTURE
     1 ATP         1 GROUP 0 A     ****
@<TRIPOS>MOLECULE
[[[3,4-dihydroxy-5-(6-imino-7,8-dihydro-1~{H}-purin-8-ylium-9-yl)tetrahydrofuran-2-yl]methoxy-oxido-phosphoryl]oxy-hydroxy-phosphoryl] hydrogen phosphate
   46    48     1     0     0
SMALL
USER_CHARGES

@<TRIPOS>ATOM
      1 PG          0.0800    5.5861   -4.0025 P.3       1 ATP         1.5595
      2 O1G         0.8874    6.3972   -4.9915 O.co2     1 ATP        -0.8438
      3 O2G        -0.2851    6.1520   -2.6483 O.co2     1 ATP        -0.8438
      4 O3G        -1.2872    5.0821   -4.7394 O.3       1 ATP        -0.7800
      5 PB          1.2557    3.0281   -4.8813 P.3       1 ATP         1.9223
      6 O1B         0.1526    2.4736   -5.7333 O.2       1 ATP        -0.8953
      7 O2B         2.4489    3.7562   -5.6934 O.3       1 ATP        -0.8165
      8 O3B         0.7984    4.1364   -3.7971 O.3       1 ATP        -0.8247
      9 PA          2.8619    0.6169   -4.3269 P.3       1 ATP         1.6157
     10 O1A         4.0991    1.0216   -5.0986 O.co2     1 ATP        -0.8629
     11 O2A         1.8962   -0.4016   -4.8925 O.co2     1 ATP        -0.8629
     12 O3A         2.0200    1.9612   -3.9394 O.3       1 ATP        -0.8191
     13 O5'         3.2903    0.1346   -2.8241 O.3       1 ATP        -0.5644
     14 C5'         2.2816   -0.2918   -1.9206 C.3       1 ATP         0.2062
     15 C4'         2.7248    0.0226   -0.4980 C.3       1 ATP         0.0971
     16 O4'         2.4697    1.4219   -0.2462 O.3       1 ATP        -0.3662
     17 C3'         1.9404   -0.7419    0.5596 C.3       1 ATP         0.0734
     18 O3'         2.7418   -0.8086    1.7389 O.3       1 ATP        -0.5671
     19 C2'         0.7477    0.1630    0.7858 C.3       1 ATP         0.0745
     20 O2'         0.1373   -0.0577    2.0407 O.3       1 ATP        -0.5794
     21 C1'         1.3733    1.5427    0.6747 C.3       1 ATP         0.3824
     22 N9          0.4520    2.5240    0.1767 N.pl3     1 ATP        -0.4324
     23 C8         -0.2004    2.4829   -0.9804 C.ar      1 ATP         0.2662
     24 N7         -0.9830    3.5431   -1.1568 N.pl3     1 ATP        -0.4772
     25 C5         -0.8095    4.3012   -0.0331 C.ar      1 ATP        -0.1305
     26 C6         -1.4065    5.5904    0.3585 C.ar      1 ATP         0.7186
     27 N6         -2.2501    6.2030   -0.4084 N.2       1 ATP        -0.8115
     28 N1         -0.9585    6.0272    1.5994 N.pl3     1 ATP        -0.8400
     29 C2         -0.0508    5.3009    2.3532 C.ar      1 ATP         0.6671
     30 N3          0.4890    4.1592    2.0257 N.2       1 ATP        -0.5806
     31 C4          0.0637    3.7006    0.7995 C.ar      1 ATP         0.2748
     32 HOG3       -1.9219    4.5394   -4.2249 H         1 ATP         0.4327
     33 HOB2        2.9614    3.2378   -6.3498 H         1 ATP         0.4701
     34 H5'1        1.3514    0.2330   -2.1577 H         1 ATP         0.0401
     35 H5'2        2.1280   -1.3678   -2.0460 H         1 ATP         0.0401
     36 H4'         3.8044   -0.1397   -0.4040 H         1 ATP         0.1136
     37 H3'         1.6764   -1.7639    0.2728 H         1 ATP         0.0693
     38 HO3'        2.2232   -1.2979    2.3953 H         1 ATP         0.4124
     39 H2'        -0.0011    0.0027    0.0003 H         1 ATP         0.0854
     40 HO2'       -0.6141    0.5574    2.1082 H         1 ATP         0.4367
     41 H1'         1.7826    1.9024    1.6451 H         1 ATP         0.1343
     42 H8         -0.1116    1.6863   -1.6984 H         1 ATP         0.3302
     43 HN62       -2.5420    7.0730    0.0447 H         1 ATP         0.4160
     44 H2          0.1969    5.7893    3.3086 H         1 ATP         0.0756
     45 H45        -1.3097    6.9080    1.9642 H         1 ATP         0.4587
     46 H46        -1.5735    3.7351   -1.9538 H         1 ATP         0.5254
@<TRIPOS>BOND
     1    1    2 2
     2    1    3 1
     3    1    4 1
     4    1    8 1
     5    4   32 1
     6    5    6 2
     7    5    7 1
     8    5    8 1
     9    5   12 1
    10    7   33 1
    11    9   10 2
    12    9   11 1
    13    9   12 1
    14    9   13 1
    15   13   14 1
    16   14   15 1
    17   14   34 1
    18   14   35 1
    19   15   16 1
    20   15   17 1
    21   15   36 1
    22   16   21 1
    23   17   18 1
    24   17   19 1
    25   17   37 1
    26   18   38 1
    27   19   20 1
    28   19   21 1
    29   19   39 1
    30   20   40 1
    31   21   22 1
    32   21   41 1
    33   22   23 ar
    34   22   31 ar
    35   23   24 ar
    36   23   42 1
    37   24   25 ar
    38   24   46 1
    39   25   26 ar
    40   25   31 ar
    41   26   27 2
    42   26   28 ar
    43   27   43 1
    44   28   29 ar
    45   28   45 1
    46   29   30 ar
    47   29   44 1
    48   30   31 ar
@<TRIPOS>SUBSTRUCTURE
     1 ATP         1 GROUP 0 A     ****
@<TRIPOS>MOLECULE
[[[3,4-dihydroxy-5-(6-imino-7,8-dihydro-1~{H}-purin-8-ylium-9-yl)tetrahydrofuran-2-yl]methoxy-oxido-phosphoryl]oxy-hydroxy-phosphoryl] hydrogen phosphate
   46    48     1     0     0
SMALL
USER_CHARGES

@<TRIPOS>ATOM
      1 PG          5.6423   -3.0273   -1.3945 P.3       1 ATP         1.5595
      2 O1G         5.1829   -2.5839   -0.0234 O.co2     1 ATP        -0.8438
      3 O2G         7.0833   -2.8613   -1.8225 O.co2     1 ATP        -0.8438
      4 O3G         5.2160   -4.5895   -1.6038 O.3       1 ATP        -0.7800
      5 PB          4.5975   -2.5883   -4.1173 P.3       1 ATP         1.9223
      6 O1B         5.8568   -2.2745   -4.8696 O.2       1 ATP        -0.8953
      7 O2B         4.0776   -4.1127   -4.2570 O.3       1 ATP        -0.8165
      8 O3B         4.6724   -2.3539   -2.5197 O.3       1 ATP        -0.8247
      9 PA          3.0673   -0.0858   -4.4292 P.3       1 ATP         1.6157
     10 O1A         1.6266    0.2116   -4.7838 O.co2     1 ATP        -0.8629
     11 O2A         4.2011    0.5980   -5.1618 O.co2     1 ATP        -0.8629
     12 O3A         3.3063   -1.6991   -4.5069 O.3       1 ATP        -0.8191
     13 O5'         3.2903    0.1346   -2.8241 O.3       1 ATP        -0.5644
     14 C5'         2.2816   -0.2918   -1.9206 C.3       1 ATP         0.2062
     15 C4'         2.7248    0.0226   -0.4980 C.3       1 ATP         0.0971
     16 O4'         2.4697    1.4219   -0.2462 O.3       1 ATP        -0.3662
     17 C3'         1.9404   -0.7419    0.5596 C.3       1 ATP         0.0734
     18 O3'         2.7418   -0.8086    1.7389 O.3       1 ATP        -0.5671
     19 C2'         0.7477    0.1630    0.7858 C.3       1 ATP         0.0745
     20 O2'         0.1373   -0.0577    2.0407 O.3       1 ATP        -0.5794
     21 C1'         1.3733    1.5427    0.6747 C.3       1 ATP         0.3824
     22 N9          0.4520    2.5240    0.1767 N.pl3     1 ATP        -0.4324
     23 C8          0.2216    2.8192   -1.0985 C.ar      1 ATP         0.2662
     24 N7         -0.6906    3.7763   -1.2384 N.pl3     1 ATP        -0.4772
     25 C5         -1.0575    4.1037    0.0366 C.ar      1 ATP        -0.1305
     26 C6         -2.0291    5.0943    0.5330 C.ar      1 ATP         0.7186
     27 N6         -2.7093    5.8371   -0.2800 N.2       1 ATP        -0.8115
     28 N1         -2.1051    5.1136    1.9204 N.pl3     1 ATP        -0.8400
     29 C2         -1.3354    4.2774    2.7129 C.ar      1 ATP         0.6671
     30 N3         -0.4707    3.3945    2.2944 N.2       1 ATP        -0.5806
     31 C4         -0.3734    3.3525    0.9220 C.ar      1 ATP         0.2748
     32 HOG3        5.4458   -5.0265   -2.4514 H         1 ATP         0.4327
     33 HOB2        3.8552   -4.4585   -5.1476 H         1 ATP         0.4701
     34 H5'1        1.3514    0.2330   -2.1577 H         1 ATP         0.0401
     35 H5'2        2.1280   -1.3678   -2.0460 H         1 ATP         0.0401
     36 H4'         3.8044   -0.1397   -0.4040 H         1 ATP         0.1136
     37 H3'         1.6764   -1.7639    0.2728 H         1 ATP         0.0693
     38 HO3'        2.2232   -1.2979    2.3953 H         1 ATP         0.4124
     39 H2'        -0.0011    0.0027    0.0003 H         1 ATP         0.0854
     40 HO2'       -0.6141    0.5574    2.1082 H         1 ATP         0.4367
     41 H1'         1.7826    1.9024    1.6451 H         1 ATP         0.1343
     42 H8          0.7125    2.3429   -1.9292 H         1 ATP         0.3302
     43 HN62       -3.3217    6.4517    0.2629 H         1 ATP         0.4160
     44 H2         -1.5188    4.4223    3.7890 H         1 ATP         0.0756
     45 H45        -2.7470    5.7627    2.3665 H         1 ATP         0.4587
     46 H46        -1.0305    4.1680   -2.1054 H         1 ATP         0.5254
@<TRIPOS>BOND
     1    1    2 2
     2    1    3 1
     3    1    4 1
     4    1    8 1
     5    4   32 1
     6    5    6 2
     7    5    7 1
     8    5    8 1
     9    5   12 1
    10    7   33 1
    11    9   10 2
    12    9   11 1
    13    9   12 1
    14    9   13 1
    15   13   14 1
    16   14   15 1
    17   14   34 1
    18   14   35 1
    19   15   16 1
    20   15   17 1
    21   15   36 1
    22   16   21 1
    23   17   18 1
    24   17   19 1
    25   17   37 1
    26   18   38 1
    27   19   20 1
    28   19   21 1
    29   19   39 1
    30   20   40 1
    31   21   22 1
    32   21   41 1
    33   22   23 ar
    34   22   31 ar
    35   23   24 ar
    36   23   42 1
    37   24   25 ar
    38   24   46 1
    39   25   26 ar
    40   25   31 ar
    41   26   27 2
    42   26   28 ar
    43   27   43 1
    44   28   29 ar
    45   28   45 1
    46   29   30 ar
    47   29   44 1
    48   30   31 ar
@<TRIPOS>SUBSTRUCTURE
     1 ATP         1 GROUP 0 A     ****
@<TRIPOS>MOLECULE
[[[3,4-dihydroxy-5-(6-imino-7,8-dihydro-1~{H}-purin-8-ylium-9-yl)tetrahydrofuran-2-yl]methoxy-oxido-phosphoryl]oxy-hydroxy-phosphoryl] hydrogen phosphate
   46    48     1     0     0
SMALL
USER_CHARGES

@<TRIPOS>ATOM
      1 PG          4.6920   -4.6580   -6.2684 P.3       1 ATP         1.5595
      2 O1G         3.4512   -5.1767   -6.9607 O.co2     1 ATP        -0.8438
      3 O2G         5.4847   -5.5407   -5.3305 O.co2     1 ATP        -0.8438
      4 O3G         5.7063   -4.0619   -7.4006 O.3       1 ATP        -0.7800
      5 PB          3.6349   -1.9126   -6.0608 P.3       1 ATP         1.9223
      6 O1B         4.3711   -1.2279   -7.1741 O.2       1 ATP        -0.8953
      7 O2B         2.1271   -2.3735   -6.4179 O.3       1 ATP        -0.8165
      8 O3B         4.3270   -3.2636   -5.5052 O.3       1 ATP        -0.8247
      9 PA          2.7406    0.3767   -4.4296 P.3       1 ATP         1.6157
     10 O1A         1.2546    0.2225   -4.6703 O.co2     1 ATP        -0.8629
     11 O2A         3.5320    1.4518   -5.1421 O.co2     1 ATP        -0.8629
     12 O3A         3.4692   -1.0595   -4.6990 O.3       1 ATP        -0.8191
     13 O5'         3.0213    0.5153   -2.8245 O.3       1 ATP        -0.5644
     14 C5'         2.2816   -0.2918   -1.9206 C.3       1 ATP         0.2062
     15 C4'         2.7248    0.0226   -0.4980 C.3       1 ATP         0.0971
     16 O4'         2.4697    1.4219   -0.2462 O.3       1 ATP        -0.3662
     17 C3'         1.9404   -0.7419    0.5596 C.3       1 ATP         0.0734
     18 O3'         2.7418   -0.8086    1.7389 O.3       1 ATP        -0.5671
     19 C2'         0.7477    0.1630    0.7858 C.3       1 ATP         0.0745
     20 O2'         0.1373   -0.0577    2.0407 O.3       1 ATP        -0.5794
     21 C1'         1.3733    1.5427    0.6747 C.3       1 ATP         0.3824
     22 N9          0.4520    2.5240    0.1767 N.pl3     1 ATP        -0.4324
     23 C8          0.2216    2.8192   -1.0985 C.ar      1 ATP         0.2662
     24 N7         -0.6906    3.7763   -1.2384 N.pl3     1 ATP        -0.4772
     25 C5         -1.0575    4.1037    0.0366 C.ar      1 ATP        -0.1305
     26 C6         -2.0291    5.0943    0.5330 C.ar      1 ATP         0.7186
     27 N6         -2.7093    5.8371   -0.2800 N.2       1 ATP        -0.8115
     28 N1         -2.1051    5.1136    1.9204 N.pl3     1 ATP        -0.8400
     29 C2         -1.3354    4.2774    2.7129 C.ar      1 ATP         0.6671
     30 N3         -0.4707    3.3945    2.2944 N.2       1 ATP        -0.5806
     31 C4         -0.3734    3.3525    0.9220 C.ar      1 ATP         0.2748
     32 HOG3        6.5631   -3.6849   -7.1076 H         1 ATP         0.4327
     33 HOB2        1.4732   -1.6925   -6.6843 H         1 ATP         0.4701
     34 H5'1        1.2163   -0.0770   -2.0471 H         1 ATP         0.0401
     35 H5'2        2.4655   -1.3443   -2.1563 H         1 ATP         0.0401
     36 H4'         3.8044   -0.1397   -0.4040 H         1 ATP         0.1136
     37 H3'         1.6764   -1.7639    0.2728 H         1 ATP         0.0693
     38 HO3'        2.2232   -1.2979    2.3953 H         1 ATP         0.4124
     39 H2'        -0.0011    0.0027    0.0003 H         1 ATP         0.0854
     40 HO2'       -0.6141    0.5574    2.1082 H         1 ATP         0.4367
     41 H1'         1.7826    1.9024    1.6451 H         1 ATP         0.1343
     42 H8          0.7125    2.3429   -1.9292 H         1 ATP         0.3302
     43 HN62       -3.3217    6.4517    0.2629 H         1 ATP         0.4160
     44 H2         -1.5188    4.4223    3.7890 H         1 ATP         0.0756
     45 H45        -2.7470    5.7627    2.3665 H         1 ATP         0.4587
     46 H46        -1.0305    4.1680   -2.1054 H         1 ATP         0.5254
@<TRIPOS>BOND
     1    1    2 2
     2    1    3 1
     3    1    4 1
     4    1    8 1
     5    4   32 1
     6    5    6 2
     7    5    7 1
     8    5    8 1
     9    5   12 1
    10    7   33 1
    11    9   10 2
    12    9   11 1
    13    9   12 1
    14    9   13 1
    15   13   14 1
    16   14   15 1
    17   14   34 1
    18   14   35 1
    19   15   16 1
    20   15   17 1
    21   15   36 1
    22   16   21 1
    23   17   18 1
    24   17   19 1
    25   17   37 1
    26   18   38 1
    27   19   20 1
    28   19   21 1
    29   19   39 1
    30   20   40 1
    31   21   22 1
    32   21   41 1
    33   22   23 ar
    34   22   31 ar
    35   23   24 ar
    36   23   42 1
    37   24   25 ar
    38   24   46 1
    39   25   26 ar
    40   25   31 ar
    41   26   27 2
    42   26   28 ar
    43   27   43 1
    44   28   29 ar
    45   28   45 1
    46   29   30 ar
    47   29   44 1
    48   30   31 ar
@<TRIPOS>SUBSTRUCTURE
     1 ATP         1 GROUP 0 A     ****
@<TRIPOS>MOLECULE
[[[3,4-dihydroxy-5-(6-imino-7,8-dihydro-1~{H}-purin-8-ylium-9-yl)tetrahydrofuran-2-yl]methoxy-oxido-phosphoryl]oxy-hydroxy-phosphoryl] hydrogen phosphate
   46    48     1     0     0
SMALL
USER_CHARGES

@<TRIPOS>ATOM
      1 PG         -2.4480   -0.9844   -3.0901 P.3       1 ATP         1.5595
      2 O1G        -2.7026   -0.0019   -4.2115 O.co2     1 ATP        -0.8438
      3 O2G        -1.5300   -0.6312   -1.9412 O.co2     1 ATP        -0.8438
      4 O3G        -3.8864   -1.4564   -2.4781 O.3       1 ATP        -0.7800
      5 PB         -0.6283   -2.7993   -4.5367 P.3       1 ATP         1.9223
      6 O1B        -0.5422   -4.2298   -4.9800 O.2       1 ATP        -0.8953
      7 O2B        -0.5621   -1.7077   -5.7273 O.3       1 ATP        -0.8165
      8 O3B        -1.9740   -2.4070   -3.7317 O.3       1 ATP        -0.8247
      9 PA          2.1371   -2.2715   -3.6563 P.3       1 ATP         1.6157
     10 O1A         2.4976   -1.2664   -4.7285 O.co2     1 ATP        -0.8629
     11 O2A         2.6455   -3.6950   -3.7283 O.co2     1 ATP        -0.8629
     12 O3A         0.5123   -2.3150   -3.5004 O.3       1 ATP        -0.8191
     13 O5'         2.5245   -1.6648   -2.1878 O.3       1 ATP        -0.5644
     14 C5'         2.2816   -0.2918   -1.9206 C.3       1 ATP         0.2062
     15 C4'         2.7248    0.0226   -0.4980 C.3       1 ATP         0.0971
     16 O4'         2.4697    1.4219   -0.2462 O.3       1 ATP        -0.3662
     17 C3'         1.9404   -0.7419    0.5596 C.3       1 ATP         0.0734
     18 O3'         2.7418   -0.8086    1.7389 O.3       1 ATP        -0.5671
     19 C2'         0.7477    0.1630    0.7858 C.3       1 ATP         0.0745
     20 O2'         0.1373   -0.0577    2.0407 O.3       1 ATP        -0.5794
     21 C1'         1.3733    1.5427    0.6747 C.3       1 ATP         0.3824
     22 N9          0.4520    2.5240    0.1767 N.pl3     1 ATP        -0.4324
     23 C8          0.2216    2.8192   -1.0985 C.ar      1 ATP         0.2662
     24 N7         -0.6906    3.7763   -1.2384 N.pl3     1 ATP        -0.4772
     25 C5         -1.0575    4.1037    0.0366 C.ar      1 ATP        -0.1305
     26 C6         -2.0291    5.0943    0.5330 C.ar      1 ATP         0.7186
     27 N6         -2.7093    5.8371   -0.2800 N.2       1 ATP        -0.8115
     28 N1         -2.1051    5.1136    1.9204 N.pl3     1 ATP        -0.8400
     29 C2         -1.3354    4.2774    2.7129 C.ar      1 ATP         0.6671
     30 N3         -0.4707    3.3945    2.2944 N.2       1 ATP        -0.5806
     31 C4         -0.3734    3.3525    0.9220 C.ar      1 ATP         0.2748
     32 HOG3       -3.8900   -2.0988   -1.7369 H         1 ATP         0.4327
     33 HOB2       -1.2476   -1.7284   -6.4287 H         1 ATP         0.4701
     34 H5'1        2.8432    0.3119   -2.6398 H         1 ATP         0.0401
     35 H5'2        1.2128   -0.0927   -2.0428 H         1 ATP         0.0401
     36 H4'         3.8044   -0.1397   -0.4040 H         1 ATP         0.1136
     37 H3'         1.6764   -1.7639    0.2728 H         1 ATP         0.0693
     38 HO3'        3.5554   -1.2733    1.4914 H         1 ATP         0.4124
     39 H2'        -0.0011    0.0027    0.0003 H         1 ATP         0.0854
     40 HO2'       -0.1563   -0.9855    2.0596 H         1 ATP         0.4367
     41 H1'         1.7826    1.9024    1.6451 H         1 ATP         0.1343
     42 H8          0.7125    2.3429   -1.9292 H         1 ATP         0.3302
     43 HN62       -3.3217    6.4517    0.2629 H         1 ATP         0.4160
     44 H2         -1.5188    4.4223    3.7890 H         1 ATP         0.0756
     45 H45        -2.7470    5.7627    2.3665 H         1 ATP         0.4587
     46 H46        -1.0305    4.1680   -2.1054 H         1 ATP         0.5254
@<TRIPOS>BOND
     1    1    2 2
     2    1    3 1
     3    1    4 1
     4    1    8 1
     5    4   32 1
     6    5    6 2
     7    5    7 1
     8    5    8 1
     9    5   12 1
    10    7   33 1
    11    9   10 2
    12    9   11 1
    13    9   12 1
    14    9   13 1
    15   13   14 1
    16   14   15 1
    17   14   34 1
    18   14   35 1
    19   15   16 1
    20   15   17 1
    21   15   36 1
    22   16   21 1
    23   17   18 1
    24   17   19 1
    25   17   37 1
    26   18   38 1
    27   19   20 1
    28   19   21 1
    29   19   39 1
    30   20   40 1
    31   21   22 1
    32   21   41 1
    33   22   23 ar
    34   22   31 ar
    35   23   24 ar
    36   23   42 1
    37   24   25 ar
    38   24   46 1
    39   25   26 ar
    40   25   31 ar
    41   26   27 2
    42   26   28 ar
    43   27   43 1
    44   28   29 ar
    45   28   45 1
    46   29   30 ar
    47   29   44 1
    48   30   31 ar
@<TRIPOS>SUBSTRUCTURE
     1 ATP         1 GROUP 0 A     ****
@<TRIPOS>MOLECULE
[[[3,4-dihydroxy-5-(6-imino-7,8-dihydro-1~{H}-purin-8-ylium-9-yl)tetrahydrofuran-2-yl]methoxy-oxido-phosphoryl]oxy-hydroxy-phosphoryl] hydrogen phosphate
   46    48     1     0     0
SMALL
USER_CHARGES

@<TRIPOS>ATOM
      1 PG         -2.4054    2.5156   -5.6464 P.3       1 ATP         1.5595
      2 O1G        -2.0284    3.4792   -6.7497 O.co2     1 ATP        -0.8438
      3 O2G        -3.3231    2.9421   -4.5224 O.co2     1 ATP        -0.8438
      4 O3G        -3.0135    1.1614   -6.3265 O.3       1 ATP        -0.7800
      5 PB          0.2024    1.1404   -5.7240 P.3       1 ATP         1.9223
      6 O1B        -0.1444   -0.1073   -6.4811 O.2       1 ATP        -0.8953
      7 O2B         0.8895    2.3084   -6.6057 O.3       1 ATP        -0.8165
      8 O3B        -1.0438    1.8823   -5.0102 O.3       1 ATP        -0.8247
      9 PA          2.7406    0.3767   -4.4296 P.3       1 ATP         1.6157
     10 O1A         3.6419    1.3302   -5.1835 O.co2     1 ATP        -0.8629
     11 O2A         2.7082   -1.0955   -4.7781 O.co2     1 ATP        -0.8629
     12 O3A         1.2118    0.9483   -4.4776 O.3       1 ATP        -0.8191
     13 O5'         3.0213    0.5153   -2.8245 O.3       1 ATP        -0.5644
     14 C5'         2.2816   -0.2918   -1.9206 C.3       1 ATP         0.2062
     15 C4'         2.7248    0.0226   -0.4980 C.3       1 ATP         0.0971
     16 O4'         2.4697    1.4219   -0.2462 O.3       1 ATP        -0.3662
     17 C3'         1.9404   -0.7419    0.5596 C.3       1 ATP         0.0734
     18 O3'         2.7418   -0.8086    1.7389 O.3       1 ATP        -0.5671
     19 C2'         0.7477    0.1630    0.7858 C.3       1 ATP         0.0745
     20 O2'         0.1373   -0.0577    2.0407 O.3       1 ATP        -0.5794
     21 C1'         1.3733    1.5427    0.6747 C.3       1 ATP         0.3824
     22 N9          0.4520    2.5240    0.1767 N.pl3     1 ATP        -0.4324
     23 C8         -0.2004    2.4829   -0.9804 C.ar      1 ATP         0.2662
     24 N7         -0.9830    3.5431   -1.1568 N.pl3     1 ATP        -0.4772
     25 C5         -0.8095    4.3012   -0.0331 C.ar      1 ATP        -0.1305
     26 C6         -1.4065    5.5904    0.3585 C.ar      1 ATP         0.7186
     27 N6         -2.2501    6.2030   -0.4084 N.2       1 ATP        -0.8115
     28 N1         -0.9585    6.0272    1.5994 N.pl3     1 ATP        -0.8400
     29 C2         -0.0508    5.3009    2.3532 C.ar      1 ATP         0.6671
     30 N3          0.4890    4.1592    2.0257 N.2       1 ATP        -0.5806
     31 C4          0.0637    3.7006    0.7995 C.ar      1 ATP         0.2748
     32 HOG3       -3.3065    0.4342   -5.7370 H         1 ATP         0.4327
     33 HOB2        0.3953    2.6817   -7.3664 H         1 ATP         0.4701
     34 H5'1        1.2163   -0.0770   -2.0471 H         1 ATP         0.0401
     35 H5'2        2.4655   -1.3443   -2.1563 H         1 ATP         0.0401
     36 H4'         3.8044   -0.1397   -0.4040 H         1 ATP         0.1136
     37 H3'         1.6764   -1.7639    0.2728 H         1 ATP         0.0693
     38 HO3'        2.2232   -1.2979    2.3953 H         1 ATP         0.4124
     39 H2'        -0.0011    0.0027    0.0003 H         1 ATP         0.0854
     40 HO2'       -0.1563   -0.9855    2.0596 H         1 ATP         0.4367
     41 H1'         1.7826    1.9024    1.6451 H         1 ATP         0.1343
     42 H8         -0.1116    1.6863   -1.6984 H         1 ATP         0.3302
     43 HN62       -2.5420    7.0730    0.0447 H         1 ATP         0.4160
     44 H2          0.1969    5.7893    3.3086 H         1 ATP         0.0756
     45 H45        -1.3097    6.9080    1.9642 H         1 ATP         0.4587
     46 H46        -1.5735    3.7351   -1.9538 H         1 ATP         0.5254
@<TRIPOS>BOND
     1    1    2 2
     2    1    3 1
     3    1    4 1
     4    1    8 1
     5    4   32 1
     6    5    6 2
     7    5    7 1
     8    5    8 1
     9    5   12 1
    10    7   33 1
    11    9   10 2
    12    9   11 1
    13    9   12 1
    14    9   13 1
    15   13   14 1
    16   14   15 1
    17   14   34 1
    18   14   35 1
    19   15   16 1
    20   15   17 1
    21   15   36 1
    22   16   21 1
    23   17   18 1
    24   17   19 1
    25   17   37 1
    26   18   38 1
    27   19   20 1
    28   19   21 1
    29   19   39 1
    30   20   40 1
    31   21   22 1
    32   21   41 1
    33   22   23 ar
    34   22   31 ar
    35   23   24 ar
    36   23   42 1
    37   24   25 ar
    38   24   46 1
    39   25   26 ar
    40   25   31 ar
    41   26   27 2
    42   26   28 ar
    43   27   43 1
    44   28   29 ar
    45   28   45 1
    46   29   30 ar
    47   29   44 1
    48   30   31 ar
@<TRIPOS>SUBSTRUCTURE
     1 ATP         1 GROUP 0 A     ****
@<TRIPOS>MOLECULE
[[[3,4-dihydroxy-5-(6-imino-7,8-dihydro-1~{H}-purin-8-ylium-9-yl)tetrahydrofuran-2-yl]methoxy-oxido-phosphoryl]oxy-hydroxy-phosphoryl] hydrogen phosphate
   46    48     1     0     0
SMALL
USER_CHARGES

@<TRIPOS>ATOM
      1 PG         -1.0375    3.4199   -6.2725 P.3       1 ATP         1.5595
      2 O1G        -1.5758    4.4663   -5.3222 O.co2     1 ATP        -0.8438
      3 O2G        -1.9736    2.5522   -7.0839 O.co2     1 ATP        -0.8438
      4 O3G         0.0172    4.1384   -7.2911 O.3       1 ATP        -0.7800
      5 PB          0.9862    1.2917   -6.0016 P.3       1 ATP         1.9223
      6 O1B         0.2964    0.1414   -6.6734 O.2       1 ATP        -0.8953
      7 O2B         2.0606    2.0772   -6.9194 O.3       1 ATP        -0.8165
      8 O3B         0.0098    2.4638   -5.4669 O.3       1 ATP        -0.8247
      9 PA          3.0673   -0.0858   -4.4292 P.3       1 ATP         1.6157
     10 O1A         4.2678    0.4442   -5.1827 O.co2     1 ATP        -0.8629
     11 O2A         2.5799   -1.5015   -4.6484 O.co2     1 ATP        -0.8629
     12 O3A         1.8103    0.9304   -4.6600 O.3       1 ATP        -0.8191
     13 O5'         3.2903    0.1346   -2.8241 O.3       1 ATP        -0.5644
     14 C5'         2.2816   -0.2918   -1.9206 C.3       1 ATP         0.2062
     15 C4'         2.7248    0.0226   -0.4980 C.3       1 ATP         0.0971
     16 O4'         2.4697    1.4219   -0.2462 O.3       1 ATP        -0.3662
     17 C3'         1.9404   -0.7419    0.5596 C.3       1 ATP         0.0734
     18 O3'         2.7418   -0.8086    1.7389 O.3       1 ATP        -0.5671
     19 C2'         0.7477    0.1630    0.7858 C.3       1 ATP         0.0745
     20 O2'         0.1373   -0.0577    2.0407 O.3       1 ATP        -0.5794
     21 C1'         1.3733    1.5427    0.6747 C.3       1 ATP         0.3824
     22 N9          0.4520    2.5240    0.1767 N.pl3     1 ATP        -0.4324
     23 C8          0.2216    2.8192   -1.0985 C.ar      1 ATP         0.2662
     24 N7         -0.6906    3.7763   -1.2384 N.pl3     1 ATP        -0.4772
     25 C5         -1.0575    4.1037    0.0366 C.ar      1 ATP        -0.1305
     26 C6         -2.0291    5.0943    0.5330 C.ar      1 ATP         0.7186
     27 N6         -2.7093    5.8371   -0.2800 N.2       1 ATP        -0.8115
     28 N1         -2.1051    5.1136    1.9204 N.pl3     1 ATP        -0.8400
     29 C2         -1.3354    4.2774    2.7129 C.ar      1 ATP         0.6671
     30 N3         -0.4707    3.3945    2.2944 N.2       1 ATP        -0.5806
     31 C4         -0.3734    3.3525    0.9220 C.ar      1 ATP         0.2748
     32 HOG3        0.4559    3.5872   -7.9737 H         1 ATP         0.4327
     33 HOB2        2.8276    1.5833   -7.2801 H         1 ATP         0.4701
     34 H5'1        1.3514    0.2330   -2.1577 H         1 ATP         0.0401
     35 H5'2        2.1280   -1.3678   -2.0460 H         1 ATP         0.0401
     36 H4'         3.8044   -0.1397   -0.4040 H         1 ATP         0.1136
     37 H3'         1.6764   -1.7639    0.2728 H         1 ATP         0.0693
     38 HO3'        2.2232   -1.2979    2.3953 H         1 ATP         0.4124
     39 H2'        -0.0011    0.0027    0.0003 H         1 ATP         0.0854
     40 HO2'       -0.6141    0.5574    2.1082 H         1 ATP         0.4367
     41 H1'         1.7826    1.9024    1.6451 H         1 ATP         0.1343
     42 H8          0.7125    2.3429   -1.9292 H         1 ATP         0.3302
     43 HN62       -3.3217    6.4517    0.2629 H         1 ATP         0.4160
     44 H2         -1.5188    4.4223    3.7890 H         1 ATP         0.0756
     45 H45        -2.7470    5.7627    2.3665 H         1 ATP         0.4587
     46 H46        -1.0305    4.1680   -2.1054 H         1 ATP         0.5254
@<TRIPOS>BOND
     1    1    2 2
     2    1    3 1
     3    1    4 1
     4    1    8 1
     5    4   32 1
     6    5    6 2
     7    5    7 1
     8    5    8 1
     9    5   12 1
    10    7   33 1
    11    9   10 2
    12    9   11 1
    13    9   12 1
    14    9   13 1
    15   13   14 1
    16   14   15 1
    17   14   34 1
    18   14   35 1
    19   15   16 1
    20   15   17 1
    21   15   36 1
    22   16   21 1
    23   17   18 1
    24   17   19 1
    25   17   37 1
    26   18   38 1
    27   19   20 1
    28   19   21 1
    29   19   39 1
    30   20   40 1
    31   21   22 1
    32   21   41 1
    33   22   23 ar
    34   22   31 ar
    35   23   24 ar
    36   23   42 1
    37   24   25 ar
    38   24   46 1
    39   25   26 ar
    40   25   31 ar
    41   26   27 2
    42   26   28 ar
    43   27   43 1
    44   28   29 ar
    45   28   45 1
    46   29   30 ar
    47   29   44 1
    48   30   31 ar
@<TRIPOS>SUBSTRUCTURE
     1 ATP         1 GROUP 0 A     ****
@<TRIPOS>MOLECULE
[[[3,4-dihydroxy-5-(6-imino-7,8-dihydro-1~{H}-purin-8-ylium-9-yl)tetrahydrofuran-2-yl]methoxy-oxido-phosphoryl]oxy-hydroxy-phosphoryl] hydrogen phosphate
   46    48     1     0     0
SMALL
USER_CHARGES

@<TRIPOS>ATOM
      1 PG         -2.9090   -2.7219   -4.9735 P.3       1 ATP         1.5595
      2 O1G        -4.1775   -2.3548   -4.2361 O.co2     1 ATP        -0.8438
      3 O2G        -2.7693   -4.0626   -5.6594 O.co2     1 ATP        -0.8438
      4 O3G        -2.5827   -1.5473   -6.0599 O.3       1 ATP        -0.7800
      5 PB         -1.2120   -3.2745   -2.6256 P.3       1 ATP         1.9223
      6 O1B        -2.2186   -3.2202   -1.5147 O.2       1 ATP        -0.8953
      7 O2B        -0.8368   -4.7610   -3.1384 O.3       1 ATP        -0.8165
      8 O3B        -1.6362   -2.4983   -3.9786 O.3       1 ATP        -0.8247
      9 PA          1.5543   -2.4556   -3.2404 P.3       1 ATP         1.6157
     10 O1A         1.2372   -1.5511   -4.4114 O.co2     1 ATP        -0.8629
     11 O2A         2.1275   -3.8380   -3.4641 O.co2     1 ATP        -0.8629
     12 O3A         0.2206   -2.5984   -2.3094 O.3       1 ATP        -0.8191
     13 O5'         2.5245   -1.6648   -2.1878 O.3       1 ATP        -0.5644
     14 C5'         2.2816   -0.2918   -1.9206 C.3       1 ATP         0.2062
     15 C4'         2.7248    0.0226   -0.4980 C.3       1 ATP         0.0971
     16 O4'         2.4697    1.4219   -0.2462 O.3       1 ATP        -0.3662
     17 C3'         1.9404   -0.7419    0.5596 C.3       1 ATP         0.0734
     18 O3'         2.7418   -0.8086    1.7389 O.3       1 ATP        -0.5671
     19 C2'         0.7477    0.1630    0.7858 C.3       1 ATP         0.0745
     20 O2'         0.1373   -0.0577    2.0407 O.3       1 ATP        -0.5794
     21 C1'         1.3733    1.5427    0.6747 C.3       1 ATP         0.3824
     22 N9          0.4520    2.5240    0.1767 N.pl3     1 ATP        -0.4324
     23 C8          0.2216    2.8192   -1.0985 C.ar      1 ATP         0.2662
     24 N7         -0.6906    3.7763   -1.2384 N.pl3     1 ATP        -0.4772
     25 C5         -1.0575    4.1037    0.0366 C.ar      1 ATP        -0.1305
     26 C6         -2.0291    5.0943    0.5330 C.ar      1 ATP         0.7186
     27 N6         -2.7093    5.8371   -0.2800 N.2       1 ATP        -0.8115
     28 N1         -2.1051    5.1136    1.9204 N.pl3     1 ATP        -0.8400
     29 C2         -1.3354    4.2774    2.7129 C.ar      1 ATP         0.6671
     30 N3         -0.4707    3.3945    2.2944 N.2       1 ATP        -0.5806
     31 C4         -0.3734    3.3525    0.9220 C.ar      1 ATP         0.2748
     32 HOG3       -1.7841   -1.6401   -6.6218 H         1 ATP         0.4327
     33 HOB2       -1.5477   -5.3313   -3.5012 H         1 ATP         0.4701
     34 H5'1        2.8432    0.3119   -2.6398 H         1 ATP         0.0401
     35 H5'2        1.2128   -0.0927   -2.0428 H         1 ATP         0.0401
     36 H4'         3.8044   -0.1397   -0.4040 H         1 ATP         0.1136
     37 H3'         1.6764   -1.7639    0.2728 H         1 ATP         0.0693
     38 HO3'        2.2232   -1.2979    2.3953 H         1 ATP         0.4124
     39 H2'        -0.0011    0.0027    0.0003 H         1 ATP         0.0854
     40 HO2'       -0.6141    0.5574    2.1082 H         1 ATP         0.4367
     41 H1'         1.7826    1.9024    1.6451 H         1 ATP         0.1343
     42 H8          0.7125    2.3429   -1.9292 H         1 ATP         0.3302
     43 HN62       -3.3217    6.4517    0.2629 H         1 ATP         0.4160
     44 H2         -1.5188    4.4223    3.7890 H         1 ATP         0.0756
     45 H45        -2.7470    5.7627    2.3665 H         1 ATP         0.4587
     46 H46        -1.0305    4.1680   -2.1054 H         1 ATP         0.5254
@<TRIPOS>BOND
     1    1    2 2
     2    1    3 1
     3    1    4 1
     4    1    8 1
     5    4   32 1
     6    5    6 2
     7    5    7 1
     8    5    8 1
     9    5   12 1
    10    7   33 1
    11    9   10 2
    12    9   11 1
    13    9   12 1
    14    9   13 1
    15   13   14 1
    16   14   15 1
    17   14   34 1
    18   14   35 1
    19   15   16 1
    20   15   17 1
    21   15   36 1
    22   16   21 1
    23   17   18 1
    24   17   19 1
    25   17   37 1
    26   18   38 1
    27   19   20 1
    28   19   21 1
    29   19   39 1
    30   20   40 1
    31   21   22 1
    32   21   41 1
    33   22   23 ar
    34   22   31 ar
    35   23   24 ar
    36   23   42 1
    37   24   25 ar
    38   24   46 1
    39   25   26 ar
    40   25   31 ar
    41   26   27 2
    42   26   28 ar
    43   27   43 1
    44   28   29 ar
    45   28   45 1
    46   29   30 ar
    47   29   44 1
    48   30   31 ar
@<TRIPOS>SUBSTRUCTURE
     1 ATP         1 GROUP 0 A     ****
@<TRIPOS>MOLECULE
[[[3,4-dihydroxy-5-(6-imino-7,8-dihydro-1~{H}-purin-8-ylium-9-yl)tetrahydrofuran-2-yl]methoxy-oxido-phosphoryl]oxy-hydroxy-phosphoryl] hydrogen phosphate
   46    48     1     0     0
SMALL
USER_CHARGES

@<TRIPOS>ATOM
      1 PG          7.3009   -2.5718   -2.7644 P.3       1 ATP         1.5595
      2 O1G         8.4011   -1.8706   -3.5297 O.co2     1 ATP        -0.8438
      3 O2G         7.6118   -3.7309   -1.8440 O.co2     1 ATP        -0.8438
      4 O3G         6.4605   -1.4528   -1.9231 O.3       1 ATP        -0.7800
      5 PB          5.3153   -2.1589   -4.9055 P.3       1 ATP         1.9223
      6 O1B         6.1548   -1.5088   -5.9652 O.2       1 ATP        -0.8953
      7 O2B         4.2005   -3.1936   -5.4534 O.3       1 ATP        -0.8165
      8 O3B         6.1337   -3.0218   -3.8108 O.3       1 ATP        -0.8247
      9 PA          3.3342   -0.0516   -4.3262 P.3       1 ATP         1.6157
     10 O1A         2.1153   -0.7748   -4.8565 O.co2     1 ATP        -0.8629
     11 O2A         3.9830    1.0583   -5.1244 O.co2     1 ATP        -0.8629
     12 O3A         4.4805   -1.1538   -3.9557 O.3       1 ATP        -0.8191
     13 O5'         3.0213    0.5153   -2.8245 O.3       1 ATP        -0.5644
     14 C5'         2.2816   -0.2918   -1.9206 C.3       1 ATP         0.2062
     15 C4'         2.7248    0.0226   -0.4980 C.3       1 ATP         0.0971
     16 O4'         2.4697    1.4219   -0.2462 O.3       1 ATP        -0.3662
     17 C3'         1.9404   -0.7419    0.5596 C.3       1 ATP         0.0734
     18 O3'         2.7418   -0.8086    1.7389 O.3       1 ATP        -0.5671
     19 C2'         0.7477    0.1630    0.7858 C.3       1 ATP         0.0745
     20 O2'         0.1373   -0.0577    2.0407 O.3       1 ATP        -0.5794
     21 C1'         1.3733    1.5427    0.6747 C.3       1 ATP         0.3824
     22 N9          0.4520    2.5240    0.1767 N.pl3     1 ATP        -0.4324
     23 C8          0.2216    2.8192   -1.0985 C.ar      1 ATP         0.2662
     24 N7         -0.6906    3.7763   -1.2384 N.pl3     1 ATP        -0.4772
     25 C5         -1.0575    4.1037    0.0366 C.ar      1 ATP        -0.1305
     26 C6         -2.0291    5.0943    0.5330 C.ar      1 ATP         0.7186
     27 N6         -2.7093    5.8371   -0.2800 N.2       1 ATP        -0.8115
     28 N1         -2.1051    5.1136    1.9204 N.pl3     1 ATP        -0.8400
     29 C2         -1.3354    4.2774    2.7129 C.ar      1 ATP         0.6671
     30 N3         -0.4707    3.3945    2.2944 N.2       1 ATP        -0.5806
     31 C4         -0.3734    3.3525    0.9220 C.ar      1 ATP         0.2748
     32 HOG3        5.7071   -1.7527   -1.3710 H         1 ATP         0.4327
     33 HOB2        3.5082   -2.8649   -6.0658 H         1 ATP         0.4701
     34 H5'1        1.2163   -0.0770   -2.0471 H         1 ATP         0.0401
     35 H5'2        2.4655   -1.3443   -2.1563 H         1 ATP         0.0401
     36 H4'         3.8044   -0.1397   -0.4040 H         1 ATP         0.1136
     37 H3'         1.6764   -1.7639    0.2728 H         1 ATP         0.0693
     38 HO3'        2.2232   -1.2979    2.3953 H         1 ATP         0.4124
     39 H2'        -0.0011    0.0027    0.0003 H         1 ATP         0.0854
     40 HO2'       -0.6141    0.5574    2.1082 H         1 ATP         0.4367
     41 H1'         1.7826    1.9024    1.6451 H         1 ATP         0.1343
     42 H8          0.7125    2.3429   -1.9292 H         1 ATP         0.3302
     43 HN62       -3.3217    6.4517    0.2629 H         1 ATP         0.4160
     44 H2         -1.5188    4.4223    3.7890 H         1 ATP         0.0756
     45 H45        -2.7470    5.7627    2.3665 H         1 ATP         0.4587
     46 H46        -1.0305    4.1680   -2.1054 H         1 ATP         0.5254
@<TRIPOS>BOND
     1    1    2 2
     2    1    3 1
     3    1    4 1
     4    1    8 1
     5    4   32 1
     6    5    6 2
     7    5    7 1
     8    5    8 1
     9    5   12 1
    10    7   33 1
    11    9   10 2
    12    9   11 1
    13    9   12 1
    14    9   13 1
    15   13   14 1
    16   14   15 1
    17   14   34 1
    18   14   35 1
    19   15   16 1
    20   15   17 1
    21   15   36 1
    22   16   21 1
    23   17   18 1
    24   17   19 1
    25   17   37 1
    26   18   38 1
    27   19   20 1
    28   19   21 1
    29   19   39 1
    30   20   40 1
    31   21   22 1
    32   21   41 1
    33   22   23 ar
    34   22   31 ar
    35   23   24 ar
    36   23   42 1
    37   24   25 ar
    38   24   46 1
    39   25   26 ar
    40   25   31 ar
    41   26   27 2
    42   26   28 ar
    43   27   43 1
    44   28   29 ar
    45   28   45 1
    46   29   30 ar
    47   29   44 1
    48   30   31 ar
@<TRIPOS>SUBSTRUCTURE
     1 ATP         1 GROUP 0 A     ****
@<TRIPOS>MOLECULE
[[[3,4-dihydroxy-5-(6-imino-7,8-dihydro-1~{H}-purin-8-ylium-9-yl)tetrahydrofuran-2-yl]methoxy-oxido-phosphoryl]oxy-hydroxy-phosphoryl] hydrogen phosphate
   46    48     1     0     0
SMALL
USER_CHARGES

@<TRIPOS>ATOM
      1 PG          2.9178   -5.1271   -5.9176 P.3       1 ATP         1.5595
      2 O1G         4.0507   -5.3038   -6.9040 O.co2     1 ATP        -0.8438
      3 O2G         1.4837   -5.3756   -6.3288 O.co2     1 ATP        -0.8438
      4 O3G         3.2400   -6.0247   -4.5922 O.3       1 ATP        -0.7800
      5 PB          2.8428   -2.1789   -5.8992 P.3       1 ATP         1.9223
      6 O1B         3.7873   -1.8527   -7.0180 O.2       1 ATP        -0.8953
      7 O2B         1.2748   -2.1302   -6.2898 O.3       1 ATP        -0.8165
      8 O3B         3.0292   -3.6453   -5.2452 O.3       1 ATP        -0.8247
      9 PA          2.7406    0.3767   -4.4296 P.3       1 ATP         1.6157
     10 O1A         1.2942    0.7140   -4.7197 O.co2     1 ATP        -0.8629
     11 O2A         3.8609    1.0770   -5.1673 O.co2     1 ATP        -0.8629
     12 O3A         2.9483   -1.2346   -4.5928 O.3       1 ATP        -0.8191
     13 O5'         3.0213    0.5153   -2.8245 O.3       1 ATP        -0.5644
     14 C5'         2.2816   -0.2918   -1.9206 C.3       1 ATP         0.2062
     15 C4'         2.7248    0.0226   -0.4980 C.3       1 ATP         0.0971
     16 O4'         2.4697    1.4219   -0.2462 O.3       1 ATP        -0.3662
     17 C3'         1.9404   -0.7419    0.5596 C.3       1 ATP         0.0734
     18 O3'         2.7418   -0.8086    1.7389 O.3       1 ATP        -0.5671
     19 C2'         0.7477    0.1630    0.7858 C.3       1 ATP         0.0745
     20 O2'         0.1373   -0.0577    2.0407 O.3       1 ATP        -0.5794
     21 C1'         1.3733    1.5427    0.6747 C.3       1 ATP         0.3824
     22 N9          0.4520    2.5240    0.1767 N.pl3     1 ATP        -0.4324
     23 C8          0.2216    2.8192   -1.0985 C.ar      1 ATP         0.2662
     24 N7         -0.6906    3.7763   -1.2384 N.pl3     1 ATP        -0.4772
     25 C5         -1.0575    4.1037    0.0366 C.ar      1 ATP        -0.1305
     26 C6         -2.0291    5.0943    0.5330 C.ar      1 ATP         0.7186
     27 N6         -2.7093    5.8371   -0.2800 N.2       1 ATP        -0.8115
     28 N1         -2.1051    5.1136    1.9204 N.pl3     1 ATP        -0.8400
     29 C2         -1.3354    4.2774    2.7129 C.ar      1 ATP         0.6671
     30 N3         -0.4707    3.3945    2.2944 N.2       1 ATP        -0.5806
     31 C4         -0.3734    3.3525    0.9220 C.ar      1 ATP         0.2748
     32 HOG3        2.5936   -6.0162   -3.8544 H         1 ATP         0.4327
     33 HOB2        0.8934   -1.2880   -6.6178 H         1 ATP         0.4701
     34 H5'1        1.2163   -0.0770   -2.0471 H         1 ATP         0.0401
     35 H5'2        2.4655   -1.3443   -2.1563 H         1 ATP         0.0401
     36 H4'         3.8044   -0.1397   -0.4040 H         1 ATP         0.1136
     37 H3'         1.6764   -1.7639    0.2728 H         1 ATP         0.0693
     38 HO3'        2.2232   -1.2979    2.3953 H         1 ATP         0.4124
     39 H2'        -0.0011    0.0027    0.0003 H         1 ATP         0.0854
     40 HO2'       -0.6141    0.5574    2.1082 H         1 ATP         0.4367
     41 H1'         1.7826    1.9024    1.6451 H         1 ATP         0.1343
     42 H8          0.7125    2.3429   -1.9292 H         1 ATP         0.3302
     43 HN62       -3.3217    6.4517    0.2629 H         1 ATP         0.4160
     44 H2         -1.5188    4.4223    3.7890 H         1 ATP         0.0756
     45 H45        -2.7470    5.7627    2.3665 H         1 ATP         0.4587
     46 H46        -1.0305    4.1680   -2.1054 H         1 ATP         0.5254
@<TRIPOS>BOND
     1    1    2 2
     2    1    3 1
     3    1    4 1
     4    1    8 1
     5    4   32 1
     6    5    6 2
     7    5    7 1
     8    5    8 1
     9    5   12 1
    10    7   33 1
    11    9   10 2
    12    9   11 1
    13    9   12 1
    14    9   13 1
    15   13   14 1
    16   14   15 1
    17   14   34 1
    18   14   35 1
    19   15   16 1
    20   15   17 1
    21   15   36 1
    22   16   21 1
    23   17   18 1
    24   17   19 1
    25   17   37 1
    26   18   38 1
    27   19   20 1
    28   19   21 1
    29   19   39 1
    30   20   40 1
    31   21   22 1
    32   21   41 1
    33   22   23 ar
    34   22   31 ar
    35   23   24 ar
    36   23   42 1
    37   24   25 ar
    38   24   46 1
    39   25   26 ar
    40   25   31 ar
    41   26   27 2
    42   26   28 ar
    43   27   43 1
    44   28   29 ar
    45   28   45 1
    46   29   30 ar
    47   29   44 1
    48   30   31 ar
@<TRIPOS>SUBSTRUCTURE
     1 ATP         1 GROUP 0 A     ****
@<TRIPOS>MOLECULE
[[[3,4-dihydroxy-5-(6-imino-7,8-dihydro-1~{H}-purin-8-ylium-9-yl)tetrahydrofuran-2-yl]methoxy-oxido-phosphoryl]oxy-hydroxy-phosphoryl] hydrogen phosphate
   46    48     1     0     0
SMALL
USER_CHARGES

@<TRIPOS>ATOM
      1 PG          6.6241   -3.6427   -5.2308 P.3       1 ATP         1.5595
      2 O1G         7.4130   -3.6965   -3.9415 O.co2     1 ATP        -0.8438
      3 O2G         7.2228   -3.0432   -6.4836 O.co2     1 ATP        -0.8438
      4 O3G         6.0953   -5.1480   -5.5780 O.3       1 ATP        -0.7800
      5 PB          4.8246   -1.4165   -4.5208 P.3       1 ATP         1.9223
      6 O1B         5.4287   -0.9490   -3.2298 O.2       1 ATP        -0.8953
      7 O2B         5.2380   -0.5528   -5.8234 O.3       1 ATP        -0.8165
      8 O3B         5.1833   -2.9361   -4.9393 O.3       1 ATP        -0.8247
      9 PA          2.1371   -2.2715   -3.6563 P.3       1 ATP         1.6157
     10 O1A         2.4857   -3.7434   -3.7019 O.co2     1 ATP        -0.8629
     11 O2A         0.7457   -1.7949   -4.0121 O.co2     1 ATP        -0.8629
     12 O3A         3.2103   -1.4478   -4.5705 O.3       1 ATP        -0.8191
     13 O5'         2.5245   -1.6648   -2.1878 O.3       1 ATP        -0.5644
     14 C5'         2.2816   -0.2918   -1.9206 C.3       1 ATP         0.2062
     15 C4'         2.7248    0.0226   -0.4980 C.3       1 ATP         0.0971
     16 O4'         2.4697    1.4219   -0.2462 O.3       1 ATP        -0.3662
     17 C3'         1.9404   -0.7419    0.5596 C.3       1 ATP         0.0734
     18 O3'         2.7418   -0.8086    1.7389 O.3       1 ATP        -0.5671
     19 C2'         0.7477    0.1630    0.7858 C.3       1 ATP         0.0745
     20 O2'         0.1373   -0.0577    2.0407 O.3       1 ATP        -0.5794
     21 C1'         1.3733    1.5427    0.6747 C.3       1 ATP         0.3824
     22 N9          0.4520    2.5240    0.1767 N.pl3     1 ATP        -0.4324
     23 C8          0.2216    2.8192   -1.0985 C.ar      1 ATP         0.2662
     24 N7         -0.6906    3.7763   -1.2384 N.pl3     1 ATP        -0.4772
     25 C5         -1.0575    4.1037    0.0366 C.ar      1 ATP        -0.1305
     26 C6         -2.0291    5.0943    0.5330 C.ar      1 ATP         0.7186
     27 N6         -2.7093    5.8371   -0.2800 N.2       1 ATP        -0.8115
     28 N1         -2.1051    5.1136    1.9204 N.pl3     1 ATP        -0.8400
     29 C2         -1.3354    4.2774    2.7129 C.ar      1 ATP         0.6671
     30 N3         -0.4707    3.3945    2.2944 N.2       1 ATP        -0.5806
     31 C4         -0.3734    3.3525    0.9220 C.ar      1 ATP         0.2748
     32 HOG3        5.5631   -5.2797   -6.3914 H         1 ATP         0.4327
     33 HOB2        6.1852   -0.4912   -6.0709 H         1 ATP         0.4701
     34 H5'1        2.8432    0.3119   -2.6398 H         1 ATP         0.0401
     35 H5'2        1.2128   -0.0927   -2.0428 H         1 ATP         0.0401
     36 H4'         3.8044   -0.1397   -0.4040 H         1 ATP         0.1136
     37 H3'         1.6764   -1.7639    0.2728 H         1 ATP         0.0693
     38 HO3'        2.2232   -1.2979    2.3953 H         1 ATP         0.4124
     39 H2'        -0.0011    0.0027    0.0003 H         1 ATP         0.0854
     40 HO2'       -0.6141    0.5574    2.1082 H         1 ATP         0.4367
     41 H1'         1.7826    1.9024    1.6451 H         1 ATP         0.1343
     42 H8          0.7125    2.3429   -1.9292 H         1 ATP         0.3302
     43 HN62       -3.3217    6.4517    0.2629 H         1 ATP         0.4160
     44 H2         -1.5188    4.4223    3.7890 H         1 ATP         0.0756
     45 H45        -2.7470    5.7627    2.3665 H         1 ATP         0.4587
     46 H46        -1.0305    4.1680   -2.1054 H         1 ATP         0.5254
@<TRIPOS>BOND
     1    1    2 2
     2    1    3 1
     3    1    4 1
     4    1    8 1
     5    4   32 1
     6    5    6 2
     7    5    7 1
     8    5    8 1
     9    5   12 1
    10    7   33 1
    11    9   10 2
    12    9   11 1
    13    9   12 1
    14    9   13 1
    15   13   14 1
    16   14   15 1
    17   14   34 1
    18   14   35 1
    19   15   16 1
    20   15   17 1
    21   15   36 1
    22   16   21 1
    23   17   18 1
    24   17   19 1
    25   17   37 1
    26   18   38 1
    27   19   20 1
    28   19   21 1
    29   19   39 1
    30   20   40 1
    31   21   22 1
    32   21   41 1
    33   22   23 ar
    34   22   31 ar
    35   23   24 ar
    36   23   42 1
    37   24   25 ar
    38   24   46 1
    39   25   26 ar
    40   25   31 ar
    41   26   27 2
    42   26   28 ar
    43   27   43 1
    44   28   29 ar
    45   28   45 1
    46   29   30 ar
    47   29   44 1
    48   30   31 ar
@<TRIPOS>SUBSTRUCTURE
     1 ATP         1 GROUP 0 A     ****
@<TRIPOS>MOLECULE
[[[3,4-dihydroxy-5-(6-imino-7,8-dihydro-1~{H}-purin-8-ylium-9-yl)tetrahydrofuran-2-yl]methoxy-oxido-phosphoryl]oxy-hydroxy-phosphoryl] hydrogen phosphate
   46    48     1     0     0
SMALL
USER_CHARGES

@<TRIPOS>ATOM
      1 PG         -7.0265   -3.9888    0.0367 P.3       1 ATP         1.5595
      2 O1G        -7.8884   -3.4332    1.1485 O.co2     1 ATP        -0.8438
      3 O2G        -7.4916   -5.1643   -0.7934 O.co2     1 ATP        -0.8438
      4 O3G        -6.6298   -2.7670   -0.9713 O.3       1 ATP        -0.7800
      5 PB         -5.0595   -5.4116    1.7113 P.3       1 ATP         1.9223
      6 O1B        -5.6865   -5.2924    3.0689 O.2       1 ATP        -0.8953
      7 O2B        -5.3116   -6.8214    0.9614 O.3       1 ATP        -0.8165
      8 O3B        -5.5419   -4.3110    0.6302 O.3       1 ATP        -0.8247
      9 PA         -2.2652   -6.0679    2.3914 P.3       1 ATP         1.6157
     10 O1A        -2.2515   -7.4751    1.8351 O.co2     1 ATP        -0.8629
     11 O2A        -2.3598   -5.8266    3.8823 O.co2     1 ATP        -0.8629
     12 O3A        -3.4559   -5.2240    1.6592 O.3       1 ATP        -0.8191
     13 O5'        -0.9724   -5.2440    1.8220 O.3       1 ATP        -0.5644
     14 C5'        -0.7840   -3.8935    2.2172 C.3       1 ATP         0.2062
     15 C4'        -0.0724   -3.1466    1.1027 C.3       1 ATP         0.0971
     16 O4'        -0.8674   -3.1929   -0.0945 O.3       1 ATP        -0.3662
     17 C3'         0.1338   -1.6715    1.4027 C.3       1 ATP         0.0734
     18 O3'         1.2893   -1.4445    2.1808 O.3       1 ATP        -0.5671
     19 C2'         0.2158   -1.0724    0.0128 C.3       1 ATP         0.0745
     20 O2'         1.5141   -1.2448   -0.5513 O.3       1 ATP        -0.5794
     21 C1'        -0.7897   -1.9176   -0.7583 C.3       1 ATP         0.3824
     22 N9         -2.1040   -1.3333   -0.7704 N.pl3     1 ATP        -0.4324
     23 C8         -3.0590   -1.5123    0.1363 C.ar      1 ATP         0.2662
     24 N7         -4.1655   -0.8354   -0.1554 N.pl3     1 ATP        -0.4772
     25 C5         -3.8852   -0.1874   -1.3253 C.ar      1 ATP        -0.1305
     26 C6         -4.7113    0.7160   -2.1458 C.ar      1 ATP         0.7186
     27 N6         -5.9213    1.0209   -1.8021 N.2       1 ATP        -0.8115
     28 N1         -4.0411    1.1673   -3.2764 N.pl3     1 ATP        -0.8400
     29 C2         -2.7403    0.7865   -3.5638 C.ar      1 ATP         0.6671
     30 N3         -1.9921   -0.0108   -2.8519 N.2       1 ATP        -0.5806
     31 C4         -2.6302   -0.4747   -1.7239 C.ar      1 ATP         0.2748
     32 HOG3       -6.0681   -2.9680   -1.7499 H         1 ATP         0.4327
     33 HOB2       -4.9974   -7.6478    1.3864 H         1 ATP         0.4701
     34 H5'1       -1.7618   -3.4448    2.4164 H         1 ATP         0.0401
     35 H5'2       -0.1874   -3.8744    3.1341 H         1 ATP         0.0401
     36 H4'         0.8874   -3.6466    0.8805 H         1 ATP         0.1136
     37 H3'        -0.7376   -1.2333    1.9867 H         1 ATP         0.0693
     38 HO3'        1.3408   -0.4870    2.3219 H         1 ATP         0.4124
     39 H2'        -0.0384   -0.0310    0.0096 H         1 ATP         0.0854
     40 HO2'        2.1463   -0.7958    0.0370 H         1 ATP         0.4367
     41 H1'        -0.4769   -2.1002   -1.8093 H         1 ATP         0.1343
     42 H8         -2.9569   -2.1323    1.0098 H         1 ATP         0.3302
     43 HN62       -6.3169    1.6552   -2.5012 H         1 ATP         0.4160
     44 H2         -2.3612    1.2343   -4.4957 H         1 ATP         0.0756
     45 H45        -4.5223    1.7976   -3.9117 H         1 ATP         0.4587
     46 H46        -5.0218   -0.8132    0.3804 H         1 ATP         0.5254
@<TRIPOS>BOND
     1    1    2 2
     2    1    3 1
     3    1    4 1
     4    1    8 1
     5    4   32 1
     6    5    6 2
     7    5    7 1
     8    5    8 1
     9    5   12 1
    10    7   33 1
    11    9   10 2
    12    9   11 1
    13    9   12 1
    14    9   13 1
    15   13   14 1
    16   14   15 1
    17   14   34 1
    18   14   35 1
    19   15   16 1
    20   15   17 1
    21   15   36 1
    22   16   21 1
    23   17   18 1
    24   17   19 1
    25   17   37 1
    26   18   38 1
    27   19   20 1
    28   19   21 1
    29   19   39 1
    30   20   40 1
    31   21   22 1
    32   21   41 1
    33   22   23 ar
    34   22   31 ar
    35   23   24 ar
    36   23   42 1
    37   24   25 ar
    38   24   46 1
    39   25   26 ar
    40   25   31 ar
    41   26   27 2
    42   26   28 ar
    43   27   43 1
    44   28   29 ar
    45   28   45 1
    46   29   30 ar
    47   29   44 1
    48   30   31 ar
@<TRIPOS>SUBSTRUCTURE
     1 ATP         1 GROUP 0 A     ****
@<TRIPOS>MOLECULE
[[[3,4-dihydroxy-5-(6-imino-7,8-dihydro-1~{H}-purin-8-ylium-9-yl)tetrahydrofuran-2-yl]methoxy-oxido-phosphoryl]oxy-hydroxy-phosphoryl] hydrogen phosphate
   46    48     1     0     0
SMALL
USER_CHARGES

@<TRIPOS>ATOM
      1 PG          2.9333   -5.0223   -4.0572 P.3       1 ATP         1.5595
      2 O1G         3.0900   -5.1979   -2.5631 O.co2     1 ATP        -0.8438
      3 O2G         2.8103   -6.2207   -4.9716 O.co2     1 ATP        -0.8438
      4 O3G         1.6674   -4.0283   -4.3322 O.3       1 ATP        -0.7800
      5 PB          4.5975   -2.5883   -4.1173 P.3       1 ATP         1.9223
      6 O1B         5.0431   -2.5001   -2.6877 O.2       1 ATP        -0.8953
      7 O2B         5.7097   -2.1598   -5.2095 O.3       1 ATP        -0.8165
      8 O3B         4.1286   -4.0567   -4.6038 O.3       1 ATP        -0.8247
      9 PA          3.0673   -0.0858   -4.4292 P.3       1 ATP         1.6157
     10 O1A         1.6266    0.2116   -4.7838 O.co2     1 ATP        -0.8629
     11 O2A         4.2011    0.5980   -5.1618 O.co2     1 ATP        -0.8629
     12 O3A         3.3063   -1.6991   -4.5069 O.3       1 ATP        -0.8191
     13 O5'         3.2903    0.1346   -2.8241 O.3       1 ATP        -0.5644
     14 C5'         2.2816   -0.2918   -1.9206 C.3       1 ATP         0.2062
     15 C4'         2.7248    0.0226   -0.4980 C.3       1 ATP         0.0971
     16 O4'         2.4697    1.4219   -0.2462 O.3       1 ATP        -0.3662
     17 C3'         1.9404   -0.7419    0.5596 C.3       1 ATP         0.0734
     18 O3'         2.7418   -0.8086    1.7389 O.3       1 ATP        -0.5671
     19 C2'         0.7477    0.1630    0.7858 C.3       1 ATP         0.0745
     20 O2'         0.1373   -0.0577    2.0407 O.3       1 ATP        -0.5794
     21 C1'         1.3733    1.5427    0.6747 C.3       1 ATP         0.3824
     22 N9          0.4520    2.5240    0.1767 N.pl3     1 ATP        -0.4324
     23 C8          0.2216    2.8192   -1.0985 C.ar      1 ATP         0.2662
     24 N7         -0.6906    3.7763   -1.2384 N.pl3     1 ATP        -0.4772
     25 C5         -1.0575    4.1037    0.0366 C.ar      1 ATP        -0.1305
     26 C6         -2.0291    5.0943    0.5330 C.ar      1 ATP         0.7186
     27 N6         -2.7093    5.8371   -0.2800 N.2       1 ATP        -0.8115
     28 N1         -2.1051    5.1136    1.9204 N.pl3     1 ATP        -0.8400
     29 C2         -1.3354    4.2774    2.7129 C.ar      1 ATP         0.6671
     30 N3         -0.4707    3.3945    2.2944 N.2       1 ATP        -0.5806
     31 C4         -0.3734    3.3525    0.9220 C.ar      1 ATP         0.2748
     32 HOG3        1.4351   -3.8144   -5.2609 H         1 ATP         0.4327
     33 HOB2        6.0753   -1.2499   -5.1827 H         1 ATP         0.4701
     34 H5'1        1.3514    0.2330   -2.1577 H         1 ATP         0.0401
     35 H5'2        2.1280   -1.3678   -2.0460 H         1 ATP         0.0401
     36 H4'         3.8044   -0.1397   -0.4040 H         1 ATP         0.1136
     37 H3'         1.6764   -1.7639    0.2728 H         1 ATP         0.0693
     38 HO3'        2.2232   -1.2979    2.3953 H         1 ATP         0.4124
     39 H2'        -0.0011    0.0027    0.0003 H         1 ATP         0.0854
     40 HO2'       -0.6141    0.5574    2.1082 H         1 ATP         0.4367
     41 H1'         1.7826    1.9024    1.6451 H         1 ATP         0.1343
     42 H8          0.7125    2.3429   -1.9292 H         1 ATP         0.3302
     43 HN62       -3.3217    6.4517    0.2629 H         1 ATP         0.4160
     44 H2         -1.5188    4.4223    3.7890 H         1 ATP         0.0756
     45 H45        -2.7470    5.7627    2.3665 H         1 ATP         0.4587
     46 H46        -1.0305    4.1680   -2.1054 H         1 ATP         0.5254
@<TRIPOS>BOND
     1    1    2 2
     2    1    3 1
     3    1    4 1
     4    1    8 1
     5    4   32 1
     6    5    6 2
     7    5    7 1
     8    5    8 1
     9    5   12 1
    10    7   33 1
    11    9   10 2
    12    9   11 1
    13    9   12 1
    14    9   13 1
    15   13   14 1
    16   14   15 1
    17   14   34 1
    18   14   35 1
    19   15   16 1
    20   15   17 1
    21   15   36 1
    22   16   21 1
    23   17   18 1
    24   17   19 1
    25   17   37 1
    26   18   38 1
    27   19   20 1
    28   19   21 1
    29   19   39 1
    30   20   40 1
    31   21   22 1
    32   21   41 1
    33   22   23 ar
    34   22   31 ar
    35   23   24 ar
    36   23   42 1
    37   24   25 ar
    38   24   46 1
    39   25   26 ar
    40   25   31 ar
    41   26   27 2
    42   26   28 ar
    43   27   43 1
    44   28   29 ar
    45   28   45 1
    46   29   30 ar
    47   29   44 1
    48   30   31 ar
@<TRIPOS>SUBSTRUCTURE
     1 ATP         1 GROUP 0 A     ****
@<TRIPOS>MOLECULE
[[[3,4-dihydroxy-5-(6-imino-7,8-dihydro-1~{H}-purin-8-ylium-9-yl)tetrahydrofuran-2-yl]methoxy-oxido-phosphoryl]oxy-hydroxy-phosphoryl] hydrogen phosphate
   46    48     1     0     0
SMALL
USER_CHARGES

@<TRIPOS>ATOM
      1 PG          1.6355   -0.4900   -8.2461 P.3       1 ATP         1.5595
      2 O1G         1.5510   -1.7540   -9.0725 O.co2     1 ATP        -0.8438
      3 O2G         2.4571    0.6905   -8.7137 O.co2     1 ATP        -0.8438
      4 O3G         0.1185    0.0260   -7.9319 O.3       1 ATP        -0.7800
      5 PB          3.4742   -1.4806   -6.1639 P.3       1 ATP         1.9223
      6 O1B         3.8742   -2.8102   -6.7317 O.2       1 ATP        -0.8953
      7 O2B         4.5337   -0.2843   -6.4082 O.3       1 ATP        -0.8165
      8 O3B         2.0828   -0.8810   -6.7272 O.3       1 ATP        -0.8247
      9 PA          2.1371   -2.2715   -3.6563 P.3       1 ATP         1.6157
     10 O1A         2.4857   -3.7434   -3.7019 O.co2     1 ATP        -0.8629
     11 O2A         0.7457   -1.7949   -4.0121 O.co2     1 ATP        -0.8629
     12 O3A         3.2103   -1.4478   -4.5705 O.3       1 ATP        -0.8191
     13 O5'         2.5245   -1.6648   -2.1878 O.3       1 ATP        -0.5644
     14 C5'         2.2816   -0.2918   -1.9206 C.3       1 ATP         0.2062
     15 C4'         2.7248    0.0226   -0.4980 C.3       1 ATP         0.0971
     16 O4'         2.4697    1.4219   -0.2462 O.3       1 ATP        -0.3662
     17 C3'         1.9404   -0.7419    0.5596 C.3       1 ATP         0.0734
     18 O3'         2.7418   -0.8086    1.7389 O.3       1 ATP        -0.5671
     19 C2'         0.7477    0.1630    0.7858 C.3       1 ATP         0.0745
     20 O2'         0.1373   -0.0577    2.0407 O.3       1 ATP        -0.5794
     21 C1'         1.3733    1.5427    0.6747 C.3       1 ATP         0.3824
     22 N9          0.4520    2.5240    0.1767 N.pl3     1 ATP        -0.4324
     23 C8          0.2216    2.8192   -1.0985 C.ar      1 ATP         0.2662
     24 N7         -0.6906    3.7763   -1.2384 N.pl3     1 ATP        -0.4772
     25 C5         -1.0575    4.1037    0.0366 C.ar      1 ATP        -0.1305
     26 C6         -2.0291    5.0943    0.5330 C.ar      1 ATP         0.7186
     27 N6         -2.7093    5.8371   -0.2800 N.2       1 ATP        -0.8115
     28 N1         -2.1051    5.1136    1.9204 N.pl3     1 ATP        -0.8400
     29 C2         -1.3354    4.2774    2.7129 C.ar      1 ATP         0.6671
     30 N3         -0.4707    3.3945    2.2944 N.2       1 ATP        -0.5806
     31 C4         -0.3734    3.3525    0.9220 C.ar      1 ATP         0.2748
     32 HOG3        0.0040    0.8426   -7.4005 H         1 ATP         0.4327
     33 HOB2        4.7628   -0.0340   -7.3286 H         1 ATP         0.4701
     34 H5'1        2.8432    0.3119   -2.6398 H         1 ATP         0.0401
     35 H5'2        1.2128   -0.0927   -2.0428 H         1 ATP         0.0401
     36 H4'         3.8044   -0.1397   -0.4040 H         1 ATP         0.1136
     37 H3'         1.6764   -1.7639    0.2728 H         1 ATP         0.0693
     38 HO3'        2.2232   -1.2979    2.3953 H         1 ATP         0.4124
     39 H2'        -0.0011    0.0027    0.0003 H         1 ATP         0.0854
     40 HO2'       -0.6141    0.5574    2.1082 H         1 ATP         0.4367
     41 H1'         1.7826    1.9024    1.6451 H         1 ATP         0.1343
     42 H8          0.7125    2.3429   -1.9292 H         1 ATP         0.3302
     43 HN62       -3.3217    6.4517    0.2629 H         1 ATP         0.4160
     44 H2         -1.5188    4.4223    3.7890 H         1 ATP         0.0756
     45 H45        -2.7470    5.7627    2.3665 H         1 ATP         0.4587
     46 H46        -1.0305    4.1680   -2.1054 H         1 ATP         0.5254
@<TRIPOS>BOND
     1    1    2 2
     2    1    3 1
     3    1    4 1
     4    1    8 1
     5    4   32 1
     6    5    6 2
     7    5    7 1
     8    5    8 1
     9    5   12 1
    10    7   33 1
    11    9   10 2
    12    9   11 1
    13    9   12 1
    14    9   13 1
    15   13   14 1
    16   14   15 1
    17   14   34 1
    18   14   35 1
    19   15   16 1
    20   15   17 1
    21   15   36 1
    22   16   21 1
    23   17   18 1
    24   17   19 1
    25   17   37 1
    26   18   38 1
    27   19   20 1
    28   19   21 1
    29   19   39 1
    30   20   40 1
    31   21   22 1
    32   21   41 1
    33   22   23 ar
    34   22   31 ar
    35   23   24 ar
    36   23   42 1
    37   24   25 ar
    38   24   46 1
    39   25   26 ar
    40   25   31 ar
    41   26   27 2
    42   26   28 ar
    43   27   43 1
    44   28   29 ar
    45   28   45 1
    46   29   30 ar
    47   29   44 1
    48   30   31 ar
@<TRIPOS>SUBSTRUCTURE
     1 ATP         1 GROUP 0 A     ****
@<TRIPOS>MOLECULE
[[[3,4-dihydroxy-5-(6-imino-7,8-dihydro-1~{H}-purin-8-ylium-9-yl)tetrahydrofuran-2-yl]methoxy-oxido-phosphoryl]oxy-hydroxy-phosphoryl] hydrogen phosphate
   46    48     1     0     0
SMALL
USER_CHARGES

@<TRIPOS>ATOM
      1 PG         -0.8065   -0.5266   -7.4773 P.3       1 ATP         1.5595
      2 O1G        -1.2594   -1.9509   -7.2450 O.co2     1 ATP        -0.8438
      3 O2G        -0.2898   -0.0863   -8.8288 O.co2     1 ATP        -0.8438
      4 O3G        -2.0119    0.4800   -7.0301 O.3       1 ATP        -0.7800
      5 PB          0.9862    1.2917   -6.0016 P.3       1 ATP         1.9223
      6 O1B         1.7893    1.8865   -7.1204 O.2       1 ATP        -0.8953
      7 O2B        -0.2364    2.2080   -5.4732 O.3       1 ATP        -0.8165
      8 O3B         0.2859   -0.1266   -6.3342 O.3       1 ATP        -0.8247
      9 PA          3.0673   -0.0858   -4.4292 P.3       1 ATP         1.6157
     10 O1A         4.2678    0.4442   -5.1827 O.co2     1 ATP        -0.8629
     11 O2A         2.5799   -1.5015   -4.6484 O.co2     1 ATP        -0.8629
     12 O3A         1.8103    0.9304   -4.6600 O.3       1 ATP        -0.8191
     13 O5'         3.2903    0.1346   -2.8241 O.3       1 ATP        -0.5644
     14 C5'         2.2816   -0.2918   -1.9206 C.3       1 ATP         0.2062
     15 C4'         2.7248    0.0226   -0.4980 C.3       1 ATP         0.0971
     16 O4'         2.4697    1.4219   -0.2462 O.3       1 ATP        -0.3662
     17 C3'         1.9404   -0.7419    0.5596 C.3       1 ATP         0.0734
     18 O3'         2.7418   -0.8086    1.7389 O.3       1 ATP        -0.5671
     19 C2'         0.7477    0.1630    0.7858 C.3       1 ATP         0.0745
     20 O2'         0.1373   -0.0577    2.0407 O.3       1 ATP        -0.5794
     21 C1'         1.3733    1.5427    0.6747 C.3       1 ATP         0.3824
     22 N9          0.4520    2.5240    0.1767 N.pl3     1 ATP        -0.4324
     23 C8          0.2216    2.8192   -1.0985 C.ar      1 ATP         0.2662
     24 N7         -0.6906    3.7763   -1.2384 N.pl3     1 ATP        -0.4772
     25 C5         -1.0575    4.1037    0.0366 C.ar      1 ATP        -0.1305
     26 C6         -2.0291    5.0943    0.5330 C.ar      1 ATP         0.7186
     27 N6         -2.7093    5.8371   -0.2800 N.2       1 ATP        -0.8115
     28 N1         -2.1051    5.1136    1.9204 N.pl3     1 ATP        -0.8400
     29 C2         -1.3354    4.2774    2.7129 C.ar      1 ATP         0.6671
     30 N3         -0.4707    3.3945    2.2944 N.2       1 ATP        -0.5806
     31 C4         -0.3734    3.3525    0.9220 C.ar      1 ATP         0.2748
     32 HOG3       -1.8708    1.4465   -7.1211 H         1 ATP         0.4327
     33 HOB2       -0.0401    3.0981   -5.1106 H         1 ATP         0.4701
     34 H5'1        1.3514    0.2330   -2.1577 H         1 ATP         0.0401
     35 H5'2        2.1280   -1.3678   -2.0460 H         1 ATP         0.0401
     36 H4'         3.8044   -0.1397   -0.4040 H         1 ATP         0.1136
     37 H3'         1.6764   -1.7639    0.2728 H         1 ATP         0.0693
     38 HO3'        2.2232   -1.2979    2.3953 H         1 ATP         0.4124
     39 H2'        -0.0011    0.0027    0.0003 H         1 ATP         0.0854
     40 HO2'       -0.6141    0.5574    2.1082 H         1 ATP         0.4367
     41 H1'         1.7826    1.9024    1.6451 H         1 ATP         0.1343
     42 H8          0.7125    2.3429   -1.9292 H         1 ATP         0.3302
     43 HN62       -3.3217    6.4517    0.2629 H         1 ATP         0.4160
     44 H2         -1.5188    4.4223    3.7890 H         1 ATP         0.0756
     45 H45        -2.7470    5.7627    2.3665 H         1 ATP         0.4587
     46 H46        -1.0305    4.1680   -2.1054 H         1 ATP         0.5254
@<TRIPOS>BOND
     1    1    2 2
     2    1    3 1
     3    1    4 1
     4    1    8 1
     5    4   32 1
     6    5    6 2
     7    5    7 1
     8    5    8 1
     9    5   12 1
    10    7   33 1
    11    9   10 2
    12    9   11 1
    13    9   12 1
    14    9   13 1
    15   13   14 1
    16   14   15 1
    17   14   34 1
    18   14   35 1
    19   15   16 1
    20   15   17 1
    21   15   36 1
    22   16   21 1
    23   17   18 1
    24   17   19 1
    25   17   37 1
    26   18   38 1
    27   19   20 1
    28   19   21 1
    29   19   39 1
    30   20   40 1
    31   21   22 1
    32   21   41 1
    33   22   23 ar
    34   22   31 ar
    35   23   24 ar
    36   23   42 1
    37   24   25 ar
    38   24   46 1
    39   25   26 ar
    40   25   31 ar
    41   26   27 2
    42   26   28 ar
    43   27   43 1
    44   28   29 ar
    45   28   45 1
    46   29   30 ar
    47   29   44 1
    48   30   31 ar
@<TRIPOS>SUBSTRUCTURE
     1 ATP         1 GROUP 0 A     ****
@<TRIPOS>MOLECULE
[[[3,4-dihydroxy-5-(6-imino-7,8-dihydro-1~{H}-purin-8-ylium-9-yl)tetrahydrofuran-2-yl]methoxy-oxido-phosphoryl]oxy-hydroxy-phosphoryl] hydrogen phosphate
   46    48     1     0     0
SMALL
USER_CHARGES

@<TRIPOS>ATOM
      1 PG         -1.0454   -1.0225   -7.2933 P.3       1 ATP         1.5595
      2 O1G        -2.4486   -0.5250   -7.0265 O.co2     1 ATP        -0.8438
      3 O2G        -0.7594   -2.5006   -7.4376 O.co2     1 ATP        -0.8438
      4 O3G        -0.4635   -0.2509   -8.6095 O.3       1 ATP        -0.7800
      5 PB          0.2024    1.1404   -5.7240 P.3       1 ATP         1.9223
      6 O1B         0.6759    2.0587   -6.8116 O.2       1 ATP        -0.8953
      7 O2B        -1.1962    1.5623   -5.0315 O.3       1 ATP        -0.8165
      8 O3B        -0.0401   -0.3931   -6.1737 O.3       1 ATP        -0.8247
      9 PA          2.7406    0.3767   -4.4296 P.3       1 ATP         1.6157
     10 O1A         3.6419    1.3302   -5.1835 O.co2     1 ATP        -0.8629
     11 O2A         2.7082   -1.0955   -4.7781 O.co2     1 ATP        -0.8629
     12 O3A         1.2118    0.9483   -4.4776 O.3       1 ATP        -0.8191
     13 O5'         3.0213    0.5153   -2.8245 O.3       1 ATP        -0.5644
     14 C5'         2.2816   -0.2918   -1.9206 C.3       1 ATP         0.2062
     15 C4'         2.7248    0.0226   -0.4980 C.3       1 ATP         0.0971
     16 O4'         2.4697    1.4219   -0.2462 O.3       1 ATP        -0.3662
     17 C3'         1.9404   -0.7419    0.5596 C.3       1 ATP         0.0734
     18 O3'         2.7418   -0.8086    1.7389 O.3       1 ATP        -0.5671
     19 C2'         0.7477    0.1630    0.7858 C.3       1 ATP         0.0745
     20 O2'         0.1373   -0.0577    2.0407 O.3       1 ATP        -0.5794
     21 C1'         1.3733    1.5427    0.6747 C.3       1 ATP         0.3824
     22 N9          0.4520    2.5240    0.1767 N.pl3     1 ATP        -0.4324
     23 C8         -0.2004    2.4829   -0.9804 C.ar      1 ATP         0.2662
     24 N7         -0.9830    3.5431   -1.1568 N.pl3     1 ATP        -0.4772
     25 C5         -0.8095    4.3012   -0.0331 C.ar      1 ATP        -0.1305
     26 C6         -1.4065    5.5904    0.3585 C.ar      1 ATP         0.7186
     27 N6         -2.2501    6.2030   -0.4084 N.2       1 ATP        -0.8115
     28 N1         -0.9585    6.0272    1.5994 N.pl3     1 ATP        -0.8400
     29 C2         -0.0508    5.3009    2.3532 C.ar      1 ATP         0.6671
     30 N3          0.4890    4.1592    2.0257 N.2       1 ATP        -0.5806
     31 C4          0.0637    3.7006    0.7995 C.ar      1 ATP         0.2748
     32 HOG3        0.4440   -0.4661   -8.9134 H         1 ATP         0.4327
     33 HOB2       -2.0015    1.6249   -5.5881 H         1 ATP         0.4701
     34 H5'1        1.2163   -0.0770   -2.0471 H         1 ATP         0.0401
     35 H5'2        2.4655   -1.3443   -2.1563 H         1 ATP         0.0401
     36 H4'         3.8044   -0.1397   -0.4040 H         1 ATP         0.1136
     37 H3'         1.6764   -1.7639    0.2728 H         1 ATP         0.0693
     38 HO3'        2.2232   -1.2979    2.3953 H         1 ATP         0.4124
     39 H2'        -0.0011    0.0027    0.0003 H         1 ATP         0.0854
     40 HO2'       -0.6141    0.5574    2.1082 H         1 ATP         0.4367
     41 H1'         1.7826    1.9024    1.6451 H         1 ATP         0.1343
     42 H8         -0.1116    1.6863   -1.6984 H         1 ATP         0.3302
     43 HN62       -2.5420    7.0730    0.0447 H         1 ATP         0.4160
     44 H2          0.1969    5.7893    3.3086 H         1 ATP         0.0756
     45 H45        -1.3097    6.9080    1.9642 H         1 ATP         0.4587
     46 H46        -1.5735    3.7351   -1.9538 H         1 ATP         0.5254
@<TRIPOS>BOND
     1    1    2 2
     2    1    3 1
     3    1    4 1
     4    1    8 1
     5    4   32 1
     6    5    6 2
     7    5    7 1
     8    5    8 1
     9    5   12 1
    10    7   33 1
    11    9   10 2
    12    9   11 1
    13    9   12 1
    14    9   13 1
    15   13   14 1
    16   14   15 1
    17   14   34 1
    18   14   35 1
    19   15   16 1
    20   15   17 1
    21   15   36 1
    22   16   21 1
    23   17   18 1
    24   17   19 1
    25   17   37 1
    26   18   38 1
    27   19   20 1
    28   19   21 1
    29   19   39 1
    30   20   40 1
    31   21   22 1
    32   21   41 1
    33   22   23 ar
    34   22   31 ar
    35   23   24 ar
    36   23   42 1
    37   24   25 ar
    38   24   46 1
    39   25   26 ar
    40   25   31 ar
    41   26   27 2
    42   26   28 ar
    43   27   43 1
    44   28   29 ar
    45   28   45 1
    46   29   30 ar
    47   29   44 1
    48   30   31 ar
@<TRIPOS>SUBSTRUCTURE
     1 ATP         1 GROUP 0 A     ****
@<TRIPOS>MOLECULE
[[[3,4-dihydroxy-5-(6-imino-7,8-dihydro-1~{H}-purin-8-ylium-9-yl)tetrahydrofuran-2-yl]methoxy-oxido-phosphoryl]oxy-hydroxy-phosphoryl] hydrogen phosphate
   46    48     1     0     0
SMALL
USER_CHARGES

@<TRIPOS>ATOM
      1 PG          7.3890   -0.1115   -5.5019 P.3       1 ATP         1.5595
      2 O1G         8.0194   -1.2733   -6.2369 O.co2     1 ATP        -0.8438
      3 O2G         7.9428    0.3620   -4.1765 O.co2     1 ATP        -0.8438
      4 O3G         7.3131    1.1647   -6.5177 O.3       1 ATP        -0.7800
      5 PB          5.0039   -1.5143   -4.4813 P.3       1 ATP         1.9223
      6 O1B         5.3206   -2.9355   -4.8419 O.2       1 ATP        -0.8953
      7 O2B         5.3162   -1.1106   -2.9474 O.3       1 ATP        -0.8165
      8 O3B         5.7907   -0.3935   -5.3402 O.3       1 ATP        -0.8247
      9 PA          2.7406    0.3767   -4.4296 P.3       1 ATP         1.6157
     10 O1A         1.2546    0.2225   -4.6703 O.co2     1 ATP        -0.8629
     11 O2A         3.5320    1.4518   -5.1421 O.co2     1 ATP        -0.8629
     12 O3A         3.4692   -1.0595   -4.6990 O.3       1 ATP        -0.8191
     13 O5'         3.0213    0.5153   -2.8245 O.3       1 ATP        -0.5644
     14 C5'         2.2816   -0.2918   -1.9206 C.3       1 ATP         0.2062
     15 C4'         2.7248    0.0226   -0.4980 C.3       1 ATP         0.0971
     16 O4'         2.4697    1.4219   -0.2462 O.3       1 ATP        -0.3662
     17 C3'         1.9404   -0.7419    0.5596 C.3       1 ATP         0.0734
     18 O3'         2.7418   -0.8086    1.7389 O.3       1 ATP        -0.5671
     19 C2'         0.7477    0.1630    0.7858 C.3       1 ATP         0.0745
     20 O2'         0.1373   -0.0577    2.0407 O.3       1 ATP        -0.5794
     21 C1'         1.3733    1.5427    0.6747 C.3       1 ATP         0.3824
     22 N9          0.4520    2.5240    0.1767 N.pl3     1 ATP        -0.4324
     23 C8          0.2216    2.8192   -1.0985 C.ar      1 ATP         0.2662
     24 N7         -0.6906    3.7763   -1.2384 N.pl3     1 ATP        -0.4772
     25 C5         -1.0575    4.1037    0.0366 C.ar      1 ATP        -0.1305
     26 C6         -2.0291    5.0943    0.5330 C.ar      1 ATP         0.7186
     27 N6         -2.7093    5.8371   -0.2800 N.2       1 ATP        -0.8115
     28 N1         -2.1051    5.1136    1.9204 N.pl3     1 ATP        -0.8400
     29 C2         -1.3354    4.2774    2.7129 C.ar      1 ATP         0.6671
     30 N3         -0.4707    3.3945    2.2944 N.2       1 ATP        -0.5806
     31 C4         -0.3734    3.3525    0.9220 C.ar      1 ATP         0.2748
     32 HOG3        6.9256    2.0026   -6.1862 H         1 ATP         0.4327
     33 HOB2        4.8581   -1.5935   -2.2269 H         1 ATP         0.4701
     34 H5'1        1.2163   -0.0770   -2.0471 H         1 ATP         0.0401
     35 H5'2        2.4655   -1.3443   -2.1563 H         1 ATP         0.0401
     36 H4'         3.8044   -0.1397   -0.4040 H         1 ATP         0.1136
     37 H3'         1.6764   -1.7639    0.2728 H         1 ATP         0.0693
     38 HO3'        2.2232   -1.2979    2.3953 H         1 ATP         0.4124
     39 H2'        -0.0011    0.0027    0.0003 H         1 ATP         0.0854
     40 HO2'       -0.6141    0.5574    2.1082 H         1 ATP         0.4367
     41 H1'         1.7826    1.9024    1.6451 H         1 ATP         0.1343
     42 H8          0.7125    2.3429   -1.9292 H         1 ATP         0.3302
     43 HN62       -3.3217    6.4517    0.2629 H         1 ATP         0.4160
     44 H2         -1.5188    4.4223    3.7890 H         1 ATP         0.0756
     45 H45        -2.7470    5.7627    2.3665 H         1 ATP         0.4587
     46 H46        -1.0305    4.1680   -2.1054 H         1 ATP         0.5254
@<TRIPOS>BOND
     1    1    2 2
     2    1    3 1
     3    1    4 1
     4    1    8 1
     5    4   32 1
     6    5    6 2
     7    5    7 1
     8    5    8 1
     9    5   12 1
    10    7   33 1
    11    9   10 2
    12    9   11 1
    13    9   12 1
    14    9   13 1
    15   13   14 1
    16   14   15 1
    17   14   34 1
    18   14   35 1
    19   15   16 1
    20   15   17 1
    21   15   36 1
    22   16   21 1
    23   17   18 1
    24   17   19 1
    25   17   37 1
    26   18   38 1
    27   19   20 1
    28   19   21 1
    29   19   39 1
    30   20   40 1
    31   21   22 1
    32   21   41 1
    33   22   23 ar
    34   22   31 ar
    35   23   24 ar
    36   23   42 1
    37   24   25 ar
    38   24   46 1
    39   25   26 ar
    40   25   31 ar
    41   26   27 2
    42   26   28 ar
    43   27   43 1
    44   28   29 ar
    45   28   45 1
    46   29   30 ar
    47   29   44 1
    48   30   31 ar
@<TRIPOS>SUBSTRUCTURE
     1 ATP         1 GROUP 0 A     ****
@<TRIPOS>MOLECULE
[[[3,4-dihydroxy-5-(6-imino-7,8-dihydro-1~{H}-purin-8-ylium-9-yl)tetrahydrofuran-2-yl]methoxy-oxido-phosphoryl]oxy-hydroxy-phosphoryl] hydrogen phosphate
   46    48     1     0     0
SMALL
USER_CHARGES

@<TRIPOS>ATOM
      1 PG          3.5836   -4.5687   -6.0533 P.3       1 ATP         1.5595
      2 O1G         4.7083   -4.4751   -7.0603 O.co2     1 ATP        -0.8438
      3 O2G         2.2398   -3.9315   -6.3280 O.co2     1 ATP        -0.8438
      4 O3G         3.3461   -6.1419   -5.6864 O.3       1 ATP        -0.7800
      5 PB          4.5975   -2.5883   -4.1173 P.3       1 ATP         1.9223
      6 O1B         5.0431   -2.5001   -2.6877 O.2       1 ATP        -0.8953
      7 O2B         5.7097   -2.1598   -5.2095 O.3       1 ATP        -0.8165
      8 O3B         4.1286   -4.0567   -4.6038 O.3       1 ATP        -0.8247
      9 PA          3.0673   -0.0858   -4.4292 P.3       1 ATP         1.6157
     10 O1A         1.6266    0.2116   -4.7838 O.co2     1 ATP        -0.8629
     11 O2A         4.2011    0.5980   -5.1618 O.co2     1 ATP        -0.8629
     12 O3A         3.3063   -1.6991   -4.5069 O.3       1 ATP        -0.8191
     13 O5'         3.2903    0.1346   -2.8241 O.3       1 ATP        -0.5644
     14 C5'         2.2816   -0.2918   -1.9206 C.3       1 ATP         0.2062
     15 C4'         2.7248    0.0226   -0.4980 C.3       1 ATP         0.0971
     16 O4'         2.4697    1.4219   -0.2462 O.3       1 ATP        -0.3662
     17 C3'         1.9404   -0.7419    0.5596 C.3       1 ATP         0.0734
     18 O3'         2.7418   -0.8086    1.7389 O.3       1 ATP        -0.5671
     19 C2'         0.7477    0.1630    0.7858 C.3       1 ATP         0.0745
     20 O2'         0.1373   -0.0577    2.0407 O.3       1 ATP        -0.5794
     21 C1'         1.3733    1.5427    0.6747 C.3       1 ATP         0.3824
     22 N9          0.4520    2.5240    0.1767 N.pl3     1 ATP        -0.4324
     23 C8          0.2216    2.8192   -1.0985 C.ar      1 ATP         0.2662
     24 N7         -0.6906    3.7763   -1.2384 N.pl3     1 ATP        -0.4772
     25 C5         -1.0575    4.1037    0.0366 C.ar      1 ATP        -0.1305
     26 C6         -2.0291    5.0943    0.5330 C.ar      1 ATP         0.7186
     27 N6         -2.7093    5.8371   -0.2800 N.2       1 ATP        -0.8115
     28 N1         -2.1051    5.1136    1.9204 N.pl3     1 ATP        -0.8400
     29 C2         -1.3354    4.2774    2.7129 C.ar      1 ATP         0.6671
     30 N3         -0.4707    3.3945    2.2944 N.2       1 ATP        -0.5806
     31 C4         -0.3734    3.3525    0.9220 C.ar      1 ATP         0.2748
     32 HOG3        2.6437   -6.3696   -5.0406 H         1 ATP         0.4327
     33 HOB2        6.5552   -2.6560   -5.2456 H         1 ATP         0.4701
     34 H5'1        1.3514    0.2330   -2.1577 H         1 ATP         0.0401
     35 H5'2        2.1280   -1.3678   -2.0460 H         1 ATP         0.0401
     36 H4'         3.8044   -0.1397   -0.4040 H         1 ATP         0.1136
     37 H3'         1.6764   -1.7639    0.2728 H         1 ATP         0.0693
     38 HO3'        2.2232   -1.2979    2.3953 H         1 ATP         0.4124
     39 H2'        -0.0011    0.0027    0.0003 H         1 ATP         0.0854
     40 HO2'       -0.6141    0.5574    2.1082 H         1 ATP         0.4367
     41 H1'         1.7826    1.9024    1.6451 H         1 ATP         0.1343
     42 H8          0.7125    2.3429   -1.9292 H         1 ATP         0.3302
     43 HN62       -3.3217    6.4517    0.2629 H         1 ATP         0.4160
     44 H2         -1.5188    4.4223    3.7890 H         1 ATP         0.0756
     45 H45        -2.7470    5.7627    2.3665 H         1 ATP         0.4587
     46 H46        -1.0305    4.1680   -2.1054 H         1 ATP         0.5254
@<TRIPOS>BOND
     1    1    2 2
     2    1    3 1
     3    1    4 1
     4    1    8 1
     5    4   32 1
     6    5    6 2
     7    5    7 1
     8    5    8 1
     9    5   12 1
    10    7   33 1
    11    9   10 2
    12    9   11 1
    13    9   12 1
    14    9   13 1
    15   13   14 1
    16   14   15 1
    17   14   34 1
    18   14   35 1
    19   15   16 1
    20   15   17 1
    21   15   36 1
    22   16   21 1
    23   17   18 1
    24   17   19 1
    25   17   37 1
    26   18   38 1
    27   19   20 1
    28   19   21 1
    29   19   39 1
    30   20   40 1
    31   21   22 1
    32   21   41 1
    33   22   23 ar
    34   22   31 ar
    35   23   24 ar
    36   23   42 1
    37   24   25 ar
    38   24   46 1
    39   25   26 ar
    40   25   31 ar
    41   26   27 2
    42   26   28 ar
    43   27   43 1
    44   28   29 ar
    45   28   45 1
    46   29   30 ar
    47   29   44 1
    48   30   31 ar
@<TRIPOS>SUBSTRUCTURE
     1 ATP         1 GROUP 0 A     ****
@<TRIPOS>MOLECULE
[[[3,4-dihydroxy-5-(6-imino-7,8-dihydro-1~{H}-purin-8-ylium-9-yl)tetrahydrofuran-2-yl]methoxy-oxido-phosphoryl]oxy-hydroxy-phosphoryl] hydrogen phosphate
   46    48     1     0     0
SMALL
USER_CHARGES

@<TRIPOS>ATOM
      1 PG         -2.6996   -1.3567   -3.1128 P.3       1 ATP         1.5595
      2 O1G        -4.1153   -1.6297   -3.5698 O.co2     1 ATP        -0.8438
      3 O2G        -1.8324   -0.3468   -3.8309 O.co2     1 ATP        -0.8438
      4 O3G        -2.7318   -0.9765   -1.5251 O.3       1 ATP        -0.7800
      5 PB         -0.4192   -3.1020   -2.4410 P.3       1 ATP         1.9223
      6 O1B        -0.1995   -2.7581   -0.9975 O.2       1 ATP        -0.8953
      7 O2B        -0.2038   -4.6601   -2.8147 O.3       1 ATP        -0.8165
      8 O3B        -1.8951   -2.7718   -3.0114 O.3       1 ATP        -0.8247
      9 PA          2.1371   -2.2715   -3.6563 P.3       1 ATP         1.6157
     10 O1A         2.4976   -1.2664   -4.7285 O.co2     1 ATP        -0.8629
     11 O2A         2.6455   -3.6950   -3.7283 O.co2     1 ATP        -0.8629
     12 O3A         0.5123   -2.3150   -3.5004 O.3       1 ATP        -0.8191
     13 O5'         2.5245   -1.6648   -2.1878 O.3       1 ATP        -0.5644
     14 C5'         2.2816   -0.2918   -1.9206 C.3       1 ATP         0.2062
     15 C4'         2.7248    0.0226   -0.4980 C.3       1 ATP         0.0971
     16 O4'         2.4697    1.4219   -0.2462 O.3       1 ATP        -0.3662
     17 C3'         1.9404   -0.7419    0.5596 C.3       1 ATP         0.0734
     18 O3'         2.7418   -0.8086    1.7389 O.3       1 ATP        -0.5671
     19 C2'         0.7477    0.1630    0.7858 C.3       1 ATP         0.0745
     20 O2'         0.1373   -0.0577    2.0407 O.3       1 ATP        -0.5794
     21 C1'         1.3733    1.5427    0.6747 C.3       1 ATP         0.3824
     22 N9          0.4520    2.5240    0.1767 N.pl3     1 ATP        -0.4324
     23 C8         -0.2004    2.4829   -0.9804 C.ar      1 ATP         0.2662
     24 N7         -0.9830    3.5431   -1.1568 N.pl3     1 ATP        -0.4772
     25 C5         -0.8095    4.3012   -0.0331 C.ar      1 ATP        -0.1305
     26 C6         -1.4065    5.5904    0.3585 C.ar      1 ATP         0.7186
     27 N6         -2.2501    6.2030   -0.4084 N.2       1 ATP        -0.8115
     28 N1         -0.9585    6.0272    1.5994 N.pl3     1 ATP        -0.8400
     29 C2         -0.0508    5.3009    2.3532 C.ar      1 ATP         0.6671
     30 N3          0.4890    4.1592    2.0257 N.2       1 ATP        -0.5806
     31 C4          0.0637    3.7006    0.7995 C.ar      1 ATP         0.2748
     32 HOG3       -1.8837   -0.7708   -1.0772 H         1 ATP         0.4327
     33 HOB2       -0.7622   -5.3354   -2.3739 H         1 ATP         0.4701
     34 H5'1        2.8432    0.3119   -2.6398 H         1 ATP         0.0401
     35 H5'2        1.2128   -0.0927   -2.0428 H         1 ATP         0.0401
     36 H4'         3.8044   -0.1397   -0.4040 H         1 ATP         0.1136
     37 H3'         1.6764   -1.7639    0.2728 H         1 ATP         0.0693
     38 HO3'        2.2232   -1.2979    2.3953 H         1 ATP         0.4124
     39 H2'        -0.0011    0.0027    0.0003 H         1 ATP         0.0854
     40 HO2'       -0.1563   -0.9855    2.0596 H         1 ATP         0.4367
     41 H1'         1.7826    1.9024    1.6451 H         1 ATP         0.1343
     42 H8         -0.1116    1.6863   -1.6984 H         1 ATP         0.3302
     43 HN62       -2.5420    7.0730    0.0447 H         1 ATP         0.4160
     44 H2          0.1969    5.7893    3.3086 H         1 ATP         0.0756
     45 H45        -1.3097    6.9080    1.9642 H         1 ATP         0.4587
     46 H46        -1.5735    3.7351   -1.9538 H         1 ATP         0.5254
@<TRIPOS>BOND
     1    1    2 2
     2    1    3 1
     3    1    4 1
     4    1    8 1
     5    4   32 1
     6    5    6 2
     7    5    7 1
     8    5    8 1
     9    5   12 1
    10    7   33 1
    11    9   10 2
    12    9   11 1
    13    9   12 1
    14    9   13 1
    15   13   14 1
    16   14   15 1
    17   14   34 1
    18   14   35 1
    19   15   16 1
    20   15   17 1
    21   15   36 1
    22   16   21 1
    23   17   18 1
    24   17   19 1
    25   17   37 1
    26   18   38 1
    27   19   20 1
    28   19   21 1
    29   19   39 1
    30   20   40 1
    31   21   22 1
    32   21   41 1
    33   22   23 ar
    34   22   31 ar
    35   23   24 ar
    36   23   42 1
    37   24   25 ar
    38   24   46 1
    39   25   26 ar
    40   25   31 ar
    41   26   27 2
    42   26   28 ar
    43   27   43 1
    44   28   29 ar
    45   28   45 1
    46   29   30 ar
    47   29   44 1
    48   30   31 ar
@<TRIPOS>SUBSTRUCTURE
     1 ATP         1 GROUP 0 A     ****
@<TRIPOS>MOLECULE
[[[3,4-dihydroxy-5-(6-imino-7,8-dihydro-1~{H}-purin-8-ylium-9-yl)tetrahydrofuran-2-yl]methoxy-oxido-phosphoryl]oxy-hydroxy-phosphoryl] hydrogen phosphate
   46    48     1     0     0
SMALL
USER_CHARGES

@<TRIPOS>ATOM
      1 PG          7.9952   -3.0505   -2.9776 P.3       1 ATP         1.5595
      2 O1G         8.1751   -2.9769   -1.4776 O.co2     1 ATP        -0.8438
      3 O2G         9.0213   -2.4518   -3.9135 O.co2     1 ATP        -0.8438
      4 O3G         7.7607   -4.6115   -3.3954 O.3       1 ATP        -0.7800
      5 PB          5.9205   -0.9718   -3.2467 P.3       1 ATP         1.9223
      6 O1B         5.8977   -0.3965   -1.8615 O.2       1 ATP        -0.8953
      7 O2B         6.7820   -0.1293   -4.3245 O.3       1 ATP        -0.8165
      8 O3B         6.5210   -2.4681   -3.3618 O.3       1 ATP        -0.8247
      9 PA          3.3342   -0.0516   -4.3262 P.3       1 ATP         1.6157
     10 O1A         2.1153   -0.7748   -4.8565 O.co2     1 ATP        -0.8629
     11 O2A         3.9830    1.0583   -5.1244 O.co2     1 ATP        -0.8629
     12 O3A         4.4805   -1.1538   -3.9557 O.3       1 ATP        -0.8191
     13 O5'         3.0213    0.5153   -2.8245 O.3       1 ATP        -0.5644
     14 C5'         2.2816   -0.2918   -1.9206 C.3       1 ATP         0.2062
     15 C4'         2.7248    0.0226   -0.4980 C.3       1 ATP         0.0971
     16 O4'         2.4697    1.4219   -0.2462 O.3       1 ATP        -0.3662
     17 C3'         1.9404   -0.7419    0.5596 C.3       1 ATP         0.0734
     18 O3'         2.7418   -0.8086    1.7389 O.3       1 ATP        -0.5671
     19 C2'         0.7477    0.1630    0.7858 C.3       1 ATP         0.0745
     20 O2'         0.1373   -0.0577    2.0407 O.3       1 ATP        -0.5794
     21 C1'         1.3733    1.5427    0.6747 C.3       1 ATP         0.3824
     22 N9          0.4520    2.5240    0.1767 N.pl3     1 ATP        -0.4324
     23 C8          0.2216    2.8192   -1.0985 C.ar      1 ATP         0.2662
     24 N7         -0.6906    3.7763   -1.2384 N.pl3     1 ATP        -0.4772
     25 C5         -1.0575    4.1037    0.0366 C.ar      1 ATP        -0.1305
     26 C6         -2.0291    5.0943    0.5330 C.ar      1 ATP         0.7186
     27 N6         -2.7093    5.8371   -0.2800 N.2       1 ATP        -0.8115
     28 N1         -2.1051    5.1136    1.9204 N.pl3     1 ATP        -0.8400
     29 C2         -1.3354    4.2774    2.7129 C.ar      1 ATP         0.6671
     30 N3         -0.4707    3.3945    2.2944 N.2       1 ATP        -0.5806
     31 C4         -0.3734    3.3525    0.9220 C.ar      1 ATP         0.2748
     32 HOG3        7.6269   -4.8259   -4.3432 H         1 ATP         0.4327
     33 HOB2        6.5297    0.8001   -4.5114 H         1 ATP         0.4701
     34 H5'1        1.2163   -0.0770   -2.0471 H         1 ATP         0.0401
     35 H5'2        2.4655   -1.3443   -2.1563 H         1 ATP         0.0401
     36 H4'         3.8044   -0.1397   -0.4040 H         1 ATP         0.1136
     37 H3'         1.6764   -1.7639    0.2728 H         1 ATP         0.0693
     38 HO3'        2.2232   -1.2979    2.3953 H         1 ATP         0.4124
     39 H2'        -0.0011    0.0027    0.0003 H         1 ATP         0.0854
     40 HO2'       -0.6141    0.5574    2.1082 H         1 ATP         0.4367
     41 H1'         1.7826    1.9024    1.6451 H         1 ATP         0.1343
     42 H8          0.7125    2.3429   -1.9292 H         1 ATP         0.3302
     43 HN62       -3.3217    6.4517    0.2629 H         1 ATP         0.4160
     44 H2         -1.5188    4.4223    3.7890 H         1 ATP         0.0756
     45 H45        -2.7470    5.7627    2.3665 H         1 ATP         0.4587
     46 H46        -1.0305    4.1680   -2.1054 H         1 ATP         0.5254
@<TRIPOS>BOND
     1    1    2 2
     2    1    3 1
     3    1    4 1
     4    1    8 1
     5    4   32 1
     6    5    6 2
     7    5    7 1
     8    5    8 1
     9    5   12 1
    10    7   33 1
    11    9   10 2
    12    9   11 1
    13    9   12 1
    14    9   13 1
    15   13   14 1
    16   14   15 1
    17   14   34 1
    18   14   35 1
    19   15   16 1
    20   15   17 1
    21   15   36 1
    22   16   21 1
    23   17   18 1
    24   17   19 1
    25   17   37 1
    26   18   38 1
    27   19   20 1
    28   19   21 1
    29   19   39 1
    30   20   40 1
    31   21   22 1
    32   21   41 1
    33   22   23 ar
    34   22   31 ar
    35   23   24 ar
    36   23   42 1
    37   24   25 ar
    38   24   46 1
    39   25   26 ar
    40   25   31 ar
    41   26   27 2
    42   26   28 ar
    43   27   43 1
    44   28   29 ar
    45   28   45 1
    46   29   30 ar
    47   29   44 1
    48   30   31 ar
@<TRIPOS>SUBSTRUCTURE
     1 ATP         1 GROUP 0 A     ****
@<TRIPOS>MOLECULE
[[[3,4-dihydroxy-5-(6-imino-7,8-dihydro-1~{H}-purin-8-ylium-9-yl)tetrahydrofuran-2-yl]methoxy-oxido-phosphoryl]oxy-hydroxy-phosphoryl] hydrogen phosphate
   46    48     1     0     0
SMALL
USER_CHARGES

@<TRIPOS>ATOM
      1 PG         -1.4731   -0.7758   -5.2703 P.3       1 ATP         1.5595
      2 O1G        -1.5050   -2.2785   -5.4396 O.co2     1 ATP        -0.8438
      3 O2G        -2.7303    0.0504   -5.4261 O.co2     1 ATP        -0.8438
      4 O3G        -0.8026   -0.4316   -3.8218 O.3       1 ATP        -0.7800
      5 PB          1.2564   -0.5402   -6.3622 P.3       1 ATP         1.9223
      6 O1B         1.5400   -1.9595   -6.7566 O.2       1 ATP        -0.8953
      7 O2B         1.8409    0.5809   -7.3698 O.3       1 ATP        -0.8165
      8 O3B        -0.3095   -0.1604   -6.2333 O.3       1 ATP        -0.8247
      9 PA          3.3342   -0.0516   -4.3262 P.3       1 ATP         1.6157
     10 O1A         4.1296    0.9783   -5.0986 O.co2     1 ATP        -0.8629
     11 O2A         3.8297   -1.4758   -4.1998 O.co2     1 ATP        -0.8629
     12 O3A         1.8112   -0.0892   -4.9136 O.3       1 ATP        -0.8191
     13 O5'         3.0213    0.5153   -2.8245 O.3       1 ATP        -0.5644
     14 C5'         2.2816   -0.2918   -1.9206 C.3       1 ATP         0.2062
     15 C4'         2.7248    0.0226   -0.4980 C.3       1 ATP         0.0971
     16 O4'         2.4697    1.4219   -0.2462 O.3       1 ATP        -0.3662
     17 C3'         1.9404   -0.7419    0.5596 C.3       1 ATP         0.0734
     18 O3'         2.7418   -0.8086    1.7389 O.3       1 ATP        -0.5671
     19 C2'         0.7477    0.1630    0.7858 C.3       1 ATP         0.0745
     20 O2'         0.1373   -0.0577    2.0407 O.3       1 ATP        -0.5794
     21 C1'         1.3733    1.5427    0.6747 C.3       1 ATP         0.3824
     22 N9          0.4520    2.5240    0.1767 N.pl3     1 ATP        -0.4324
     23 C8          0.2216    2.8192   -1.0985 C.ar      1 ATP         0.2662
     24 N7         -0.6906    3.7763   -1.2384 N.pl3     1 ATP        -0.4772
     25 C5         -1.0575    4.1037    0.0366 C.ar      1 ATP        -0.1305
     26 C6         -2.0291    5.0943    0.5330 C.ar      1 ATP         0.7186
     27 N6         -2.7093    5.8371   -0.2800 N.2       1 ATP        -0.8115
     28 N1         -2.1051    5.1136    1.9204 N.pl3     1 ATP        -0.8400
     29 C2         -1.3354    4.2774    2.7129 C.ar      1 ATP         0.6671
     30 N3         -0.4707    3.3945    2.2944 N.2       1 ATP        -0.5806
     31 C4         -0.3734    3.3525    0.9220 C.ar      1 ATP         0.2748
     32 HOG3       -0.7104    0.5098   -3.5621 H         1 ATP         0.4327
     33 HOB2        2.8084    0.6195   -7.5269 H         1 ATP         0.4701
     34 H5'1        1.2163   -0.0770   -2.0471 H         1 ATP         0.0401
     35 H5'2        2.4655   -1.3443   -2.1563 H         1 ATP         0.0401
     36 H4'         3.8044   -0.1397   -0.4040 H         1 ATP         0.1136
     37 H3'         1.6764   -1.7639    0.2728 H         1 ATP         0.0693
     38 HO3'        2.2232   -1.2979    2.3953 H         1 ATP         0.4124
     39 H2'        -0.0011    0.0027    0.0003 H         1 ATP         0.0854
     40 HO2'       -0.6141    0.5574    2.1082 H         1 ATP         0.4367
     41 H1'         1.7826    1.9024    1.6451 H         1 ATP         0.1343
     42 H8          0.7125    2.3429   -1.9292 H         1 ATP         0.3302
     43 HN62       -3.3217    6.4517    0.2629 H         1 ATP         0.4160
     44 H2         -1.5188    4.4223    3.7890 H         1 ATP         0.0756
     45 H45        -2.7470    5.7627    2.3665 H         1 ATP         0.4587
     46 H46        -1.0305    4.1680   -2.1054 H         1 ATP         0.5254
@<TRIPOS>BOND
     1    1    2 2
     2    1    3 1
     3    1    4 1
     4    1    8 1
     5    4   32 1
     6    5    6 2
     7    5    7 1
     8    5    8 1
     9    5   12 1
    10    7   33 1
    11    9   10 2
    12    9   11 1
    13    9   12 1
    14    9   13 1
    15   13   14 1
    16   14   15 1
    17   14   34 1
    18   14   35 1
    19   15   16 1
    20   15   17 1
    21   15   36 1
    22   16   21 1
    23   17   18 1
    24   17   19 1
    25   17   37 1
    26   18   38 1
    27   19   20 1
    28   19   21 1
    29   19   39 1
    30   20   40 1
    31   21   22 1
    32   21   41 1
    33   22   23 ar
    34   22   31 ar
    35   23   24 ar
    36   23   42 1
    37   24   25 ar
    38   24   46 1
    39   25   26 ar
    40   25   31 ar
    41   26   27 2
    42   26   28 ar
    43   27   43 1
    44   28   29 ar
    45   28   45 1
    46   29   30 ar
    47   29   44 1
    48   30   31 ar
@<TRIPOS>SUBSTRUCTURE
     1 ATP         1 GROUP 0 A     ****
@<TRIPOS>MOLECULE
[[[3,4-dihydroxy-5-(6-imino-7,8-dihydro-1~{H}-purin-8-ylium-9-yl)tetrahydrofuran-2-yl]methoxy-oxido-phosphoryl]oxy-hydroxy-phosphoryl] hydrogen phosphate
   46    48     1     0     0
SMALL
USER_CHARGES

@<TRIPOS>ATOM
      1 PG         -3.5386   -2.4744   -4.1871 P.3       1 ATP         1.5595
      2 O1G        -3.7007   -1.7311   -5.4944 O.co2     1 ATP        -0.8438
      3 O2G        -4.4133   -2.1517   -2.9962 O.co2     1 ATP        -0.8438
      4 O3G        -3.6402   -4.0765   -4.4859 O.3       1 ATP        -0.7800
      5 PB         -0.6283   -2.7993   -4.5367 P.3       1 ATP         1.9223
      6 O1B        -0.5422   -4.2298   -4.9800 O.2       1 ATP        -0.8953
      7 O2B        -0.5621   -1.7077   -5.7273 O.3       1 ATP        -0.8165
      8 O3B        -1.9740   -2.4070   -3.7317 O.3       1 ATP        -0.8247
      9 PA          2.1371   -2.2715   -3.6563 P.3       1 ATP         1.6157
     10 O1A         2.4976   -1.2664   -4.7285 O.co2     1 ATP        -0.8629
     11 O2A         2.6455   -3.6950   -3.7283 O.co2     1 ATP        -0.8629
     12 O3A         0.5123   -2.3150   -3.5004 O.3       1 ATP        -0.8191
     13 O5'         2.5245   -1.6648   -2.1878 O.3       1 ATP        -0.5644
     14 C5'         2.2816   -0.2918   -1.9206 C.3       1 ATP         0.2062
     15 C4'         2.7248    0.0226   -0.4980 C.3       1 ATP         0.0971
     16 O4'         2.4697    1.4219   -0.2462 O.3       1 ATP        -0.3662
     17 C3'         1.9404   -0.7419    0.5596 C.3       1 ATP         0.0734
     18 O3'         2.7418   -0.8086    1.7389 O.3       1 ATP        -0.5671
     19 C2'         0.7477    0.1630    0.7858 C.3       1 ATP         0.0745
     20 O2'         0.1373   -0.0577    2.0407 O.3       1 ATP        -0.5794
     21 C1'         1.3733    1.5427    0.6747 C.3       1 ATP         0.3824
     22 N9          0.4520    2.5240    0.1767 N.pl3     1 ATP        -0.4324
     23 C8          0.2216    2.8192   -1.0985 C.ar      1 ATP         0.2662
     24 N7         -0.6906    3.7763   -1.2384 N.pl3     1 ATP        -0.4772
     25 C5         -1.0575    4.1037    0.0366 C.ar      1 ATP        -0.1305
     26 C6         -2.0291    5.0943    0.5330 C.ar      1 ATP         0.7186
     27 N6         -2.7093    5.8371   -0.2800 N.2       1 ATP        -0.8115
     28 N1         -2.1051    5.1136    1.9204 N.pl3     1 ATP        -0.8400
     29 C2         -1.3354    4.2774    2.7129 C.ar      1 ATP         0.6671
     30 N3         -0.4707    3.3945    2.2944 N.2       1 ATP        -0.5806
     31 C4         -0.3734    3.3525    0.9220 C.ar      1 ATP         0.2748
     32 HOG3       -3.5537   -4.6982   -3.7321 H         1 ATP         0.4327
     33 HOB2        0.2331   -1.6788   -6.3010 H         1 ATP         0.4701
     34 H5'1        2.8432    0.3119   -2.6398 H         1 ATP         0.0401
     35 H5'2        1.2128   -0.0927   -2.0428 H         1 ATP         0.0401
     36 H4'         3.8044   -0.1397   -0.4040 H         1 ATP         0.1136
     37 H3'         1.6764   -1.7639    0.2728 H         1 ATP         0.0693
     38 HO3'        2.2232   -1.2979    2.3953 H         1 ATP         0.4124
     39 H2'        -0.0011    0.0027    0.0003 H         1 ATP         0.0854
     40 HO2'       -0.6141    0.5574    2.1082 H         1 ATP         0.4367
     41 H1'         1.7826    1.9024    1.6451 H         1 ATP         0.1343
     42 H8          0.7125    2.3429   -1.9292 H         1 ATP         0.3302
     43 HN62       -3.3217    6.4517    0.2629 H         1 ATP         0.4160
     44 H2         -1.5188    4.4223    3.7890 H         1 ATP         0.0756
     45 H45        -2.7470    5.7627    2.3665 H         1 ATP         0.4587
     46 H46        -1.0305    4.1680   -2.1054 H         1 ATP         0.5254
@<TRIPOS>BOND
     1    1    2 2
     2    1    3 1
     3    1    4 1
     4    1    8 1
     5    4   32 1
     6    5    6 2
     7    5    7 1
     8    5    8 1
     9    5   12 1
    10    7   33 1
    11    9   10 2
    12    9   11 1
    13    9   12 1
    14    9   13 1
    15   13   14 1
    16   14   15 1
    17   14   34 1
    18   14   35 1
    19   15   16 1
    20   15   17 1
    21   15   36 1
    22   16   21 1
    23   17   18 1
    24   17   19 1
    25   17   37 1
    26   18   38 1
    27   19   20 1
    28   19   21 1
    29   19   39 1
    30   20   40 1
    31   21   22 1
    32   21   41 1
    33   22   23 ar
    34   22   31 ar
    35   23   24 ar
    36   23   42 1
    37   24   25 ar
    38   24   46 1
    39   25   26 ar
    40   25   31 ar
    41   26   27 2
    42   26   28 ar
    43   27   43 1
    44   28   29 ar
    45   28   45 1
    46   29   30 ar
    47   29   44 1
    48   30   31 ar
@<TRIPOS>SUBSTRUCTURE
     1 ATP         1 GROUP 0 A     ****
@<TRIPOS>MOLECULE
[[[3,4-dihydroxy-5-(6-imino-7,8-dihydro-1~{H}-purin-8-ylium-9-yl)tetrahydrofuran-2-yl]methoxy-oxido-phosphoryl]oxy-hydroxy-phosphoryl] hydrogen phosphate
   46    48     1     0     0
SMALL
USER_CHARGES

@<TRIPOS>ATOM
      1 PG         -1.0987   -5.5719   -5.4252 P.3       1 ATP         1.5595
      2 O1G        -2.5435   -5.5626   -4.9776 O.co2     1 ATP        -0.8438
      3 O2G        -0.2740   -6.8381   -5.3622 O.co2     1 ATP        -0.8438
      4 O3G        -1.0231   -4.9789   -6.9447 O.3       1 ATP        -0.7800
      5 PB         -0.6283   -2.7993   -4.5367 P.3       1 ATP         1.9223
      6 O1B        -0.6828   -2.0585   -5.8400 O.2       1 ATP        -0.8953
      7 O2B        -1.9898   -2.7555   -3.6662 O.3       1 ATP        -0.8165
      8 O3B        -0.2993   -4.3775   -4.6542 O.3       1 ATP        -0.8247
      9 PA          2.1371   -2.2715   -3.6563 P.3       1 ATP         1.6157
     10 O1A         2.4976   -1.2664   -4.7285 O.co2     1 ATP        -0.8629
     11 O2A         2.6455   -3.6950   -3.7283 O.co2     1 ATP        -0.8629
     12 O3A         0.5123   -2.3150   -3.5004 O.3       1 ATP        -0.8191
     13 O5'         2.5245   -1.6648   -2.1878 O.3       1 ATP        -0.5644
     14 C5'         2.2816   -0.2918   -1.9206 C.3       1 ATP         0.2062
     15 C4'         2.7248    0.0226   -0.4980 C.3       1 ATP         0.0971
     16 O4'         2.4697    1.4219   -0.2462 O.3       1 ATP        -0.3662
     17 C3'         1.9404   -0.7419    0.5596 C.3       1 ATP         0.0734
     18 O3'         2.7418   -0.8086    1.7389 O.3       1 ATP        -0.5671
     19 C2'         0.7477    0.1630    0.7858 C.3       1 ATP         0.0745
     20 O2'         0.1373   -0.0577    2.0407 O.3       1 ATP        -0.5794
     21 C1'         1.3733    1.5427    0.6747 C.3       1 ATP         0.3824
     22 N9          0.4520    2.5240    0.1767 N.pl3     1 ATP        -0.4324
     23 C8          0.2216    2.8192   -1.0985 C.ar      1 ATP         0.2662
     24 N7         -0.6906    3.7763   -1.2384 N.pl3     1 ATP        -0.4772
     25 C5         -1.0575    4.1037    0.0366 C.ar      1 ATP        -0.1305
     26 C6         -2.0291    5.0943    0.5330 C.ar      1 ATP         0.7186
     27 N6         -2.7093    5.8371   -0.2800 N.2       1 ATP        -0.8115
     28 N1         -2.1051    5.1136    1.9204 N.pl3     1 ATP        -0.8400
     29 C2         -1.3354    4.2774    2.7129 C.ar      1 ATP         0.6671
     30 N3         -0.4707    3.3945    2.2944 N.2       1 ATP        -0.5806
     31 C4         -0.3734    3.3525    0.9220 C.ar      1 ATP         0.2748
     32 HOG3       -0.1459   -4.9199   -7.3795 H         1 ATP         0.4327
     33 HOB2       -2.8135   -3.1199   -4.0548 H         1 ATP         0.4701
     34 H5'1        2.8432    0.3119   -2.6398 H         1 ATP         0.0401
     35 H5'2        1.2128   -0.0927   -2.0428 H         1 ATP         0.0401
     36 H4'         3.8044   -0.1397   -0.4040 H         1 ATP         0.1136
     37 H3'         1.6764   -1.7639    0.2728 H         1 ATP         0.0693
     38 HO3'        2.2232   -1.2979    2.3953 H         1 ATP         0.4124
     39 H2'        -0.0011    0.0027    0.0003 H         1 ATP         0.0854
     40 HO2'       -0.6141    0.5574    2.1082 H         1 ATP         0.4367
     41 H1'         1.7826    1.9024    1.6451 H         1 ATP         0.1343
     42 H8          0.7125    2.3429   -1.9292 H         1 ATP         0.3302
     43 HN62       -3.3217    6.4517    0.2629 H         1 ATP         0.4160
     44 H2         -1.5188    4.4223    3.7890 H         1 ATP         0.0756
     45 H45        -2.7470    5.7627    2.3665 H         1 ATP         0.4587
     46 H46        -1.0305    4.1680   -2.1054 H         1 ATP         0.5254
@<TRIPOS>BOND
     1    1    2 2
     2    1    3 1
     3    1    4 1
     4    1    8 1
     5    4   32 1
     6    5    6 2
     7    5    7 1
     8    5    8 1
     9    5   12 1
    10    7   33 1
    11    9   10 2
    12    9   11 1
    13    9   12 1
    14    9   13 1
    15   13   14 1
    16   14   15 1
    17   14   34 1
    18   14   35 1
    19   15   16 1
    20   15   17 1
    21   15   36 1
    22   16   21 1
    23   17   18 1
    24   17   19 1
    25   17   37 1
    26   18   38 1
    27   19   20 1
    28   19   21 1
    29   19   39 1
    30   20   40 1
    31   21   22 1
    32   21   41 1
    33   22   23 ar
    34   22   31 ar
    35   23   24 ar
    36   23   42 1
    37   24   25 ar
    38   24   46 1
    39   25   26 ar
    40   25   31 ar
    41   26   27 2
    42   26   28 ar
    43   27   43 1
    44   28   29 ar
    45   28   45 1
    46   29   30 ar
    47   29   44 1
    48   30   31 ar
@<TRIPOS>SUBSTRUCTURE
     1 ATP         1 GROUP 0 A     ****
@<TRIPOS>MOLECULE
[[[3,4-dihydroxy-5-(6-imino-7,8-dihydro-1~{H}-purin-8-ylium-9-yl)tetrahydrofuran-2-yl]methoxy-oxido-phosphoryl]oxy-hydroxy-phosphoryl] hydrogen phosphate
   46    48     1     0     0
SMALL
USER_CHARGES

@<TRIPOS>ATOM
      1 PG          1.1720   -3.8863   -5.5064 P.3       1 ATP         1.5595
      2 O1G         1.9219   -3.8165   -4.1947 O.co2     1 ATP        -0.8438
      3 O2G         1.8403   -4.4142   -6.7562 O.co2     1 ATP        -0.8438
      4 O3G        -0.2127   -4.7181   -5.2680 O.3       1 ATP        -0.7800
      5 PB          1.2428   -1.0148   -6.1754 P.3       1 ATP         1.9223
      6 O1B         2.0964   -1.0202   -7.4090 O.2       1 ATP        -0.8953
      7 O2B         0.0194    0.0419   -6.1931 O.3       1 ATP        -0.8165
      8 O3B         0.5285   -2.4220   -5.8254 O.3       1 ATP        -0.8247
      9 PA          2.8619    0.6169   -4.3269 P.3       1 ATP         1.6157
     10 O1A         1.9202    1.7974   -4.2284 O.co2     1 ATP        -0.8629
     11 O2A         4.1141    0.6950   -5.1728 O.co2     1 ATP        -0.8629
     12 O3A         2.0115   -0.6976   -4.7905 O.3       1 ATP        -0.8191
     13 O5'         3.2903    0.1346   -2.8241 O.3       1 ATP        -0.5644
     14 C5'         2.2816   -0.2918   -1.9206 C.3       1 ATP         0.2062
     15 C4'         2.7248    0.0226   -0.4980 C.3       1 ATP         0.0971
     16 O4'         2.4697    1.4219   -0.2462 O.3       1 ATP        -0.3662
     17 C3'         1.9404   -0.7419    0.5596 C.3       1 ATP         0.0734
     18 O3'         2.7418   -0.8086    1.7389 O.3       1 ATP        -0.5671
     19 C2'         0.7477    0.1630    0.7858 C.3       1 ATP         0.0745
     20 O2'         0.1373   -0.0577    2.0407 O.3       1 ATP        -0.5794
     21 C1'         1.3733    1.5427    0.6747 C.3       1 ATP         0.3824
     22 N9          0.4520    2.5240    0.1767 N.pl3     1 ATP        -0.4324
     23 C8          0.2216    2.8192   -1.0985 C.ar      1 ATP         0.2662
     24 N7         -0.6906    3.7763   -1.2384 N.pl3     1 ATP        -0.4772
     25 C5         -1.0575    4.1037    0.0366 C.ar      1 ATP        -0.1305
     26 C6         -2.0291    5.0943    0.5330 C.ar      1 ATP         0.7186
     27 N6         -2.7093    5.8371   -0.2800 N.2       1 ATP        -0.8115
     28 N1         -2.1051    5.1136    1.9204 N.pl3     1 ATP        -0.8400
     29 C2         -1.3354    4.2774    2.7129 C.ar      1 ATP         0.6671
     30 N3         -0.4707    3.3945    2.2944 N.2       1 ATP        -0.5806
     31 C4         -0.3734    3.3525    0.9220 C.ar      1 ATP         0.2748
     32 HOG3       -0.8147   -4.8508   -6.0310 H         1 ATP         0.4327
     33 HOB2        0.2193    0.9976   -6.2872 H         1 ATP         0.4701
     34 H5'1        1.3514    0.2330   -2.1577 H         1 ATP         0.0401
     35 H5'2        2.1280   -1.3678   -2.0460 H         1 ATP         0.0401
     36 H4'         3.8044   -0.1397   -0.4040 H         1 ATP         0.1136
     37 H3'         1.6764   -1.7639    0.2728 H         1 ATP         0.0693
     38 HO3'        2.2232   -1.2979    2.3953 H         1 ATP         0.4124
     39 H2'        -0.0011    0.0027    0.0003 H         1 ATP         0.0854
     40 HO2'       -0.6141    0.5574    2.1082 H         1 ATP         0.4367
     41 H1'         1.7826    1.9024    1.6451 H         1 ATP         0.1343
     42 H8          0.7125    2.3429   -1.9292 H         1 ATP         0.3302
     43 HN62       -3.3217    6.4517    0.2629 H         1 ATP         0.4160
     44 H2         -1.5188    4.4223    3.7890 H         1 ATP         0.0756
     45 H45        -2.7470    5.7627    2.3665 H         1 ATP         0.4587
     46 H46        -1.0305    4.1680   -2.1054 H         1 ATP         0.5254
@<TRIPOS>BOND
     1    1    2 2
     2    1    3 1
     3    1    4 1
     4    1    8 1
     5    4   32 1
     6    5    6 2
     7    5    7 1
     8    5    8 1
     9    5   12 1
    10    7   33 1
    11    9   10 2
    12    9   11 1
    13    9   12 1
    14    9   13 1
    15   13   14 1
    16   14   15 1
    17   14   34 1
    18   14   35 1
    19   15   16 1
    20   15   17 1
    21   15   36 1
    22   16   21 1
    23   17   18 1
    24   17   19 1
    25   17   37 1
    26   18   38 1
    27   19   20 1
    28   19   21 1
    29   19   39 1
    30   20   40 1
    31   21   22 1
    32   21   41 1
    33   22   23 ar
    34   22   31 ar
    35   23   24 ar
    36   23   42 1
    37   24   25 ar
    38   24   46 1
    39   25   26 ar
    40   25   31 ar
    41   26   27 2
    42   26   28 ar
    43   27   43 1
    44   28   29 ar
    45   28   45 1
    46   29   30 ar
    47   29   44 1
    48   30   31 ar
@<TRIPOS>SUBSTRUCTURE
     1 ATP         1 GROUP 0 A     ****
@<TRIPOS>MOLECULE
[[[3,4-dihydroxy-5-(6-imino-7,8-dihydro-1~{H}-purin-8-ylium-9-yl)tetrahydrofuran-2-yl]methoxy-oxido-phosphoryl]oxy-hydroxy-phosphoryl] hydrogen phosphate
   46    48     1     0     0
SMALL
USER_CHARGES

@<TRIPOS>ATOM
      1 PG          1.1022    1.5390   -6.1326 P.3       1 ATP         1.5595
      2 O1G         1.7861    1.7926   -4.8076 O.co2     1 ATP        -0.8438
      3 O2G        -0.3503    1.9060   -6.3399 O.co2     1 ATP        -0.8438
      4 O3G         1.9869    2.2367   -7.3143 O.3       1 ATP        -0.7800
      5 PB          0.7629   -1.3788   -5.8701 P.3       1 ATP         1.9223
      6 O1B        -0.7314   -1.4983   -5.8143 O.2       1 ATP        -0.8953
      7 O2B         1.5143   -2.5540   -6.6874 O.3       1 ATP        -0.8165
      8 O3B         1.3209   -0.0225   -6.5496 O.3       1 ATP        -0.8247
      9 PA          1.5543   -2.4556   -3.2404 P.3       1 ATP         1.6157
     10 O1A         2.2585   -3.6986   -3.7394 O.co2     1 ATP        -0.8629
     11 O2A         0.1705   -2.5413   -2.6342 O.co2     1 ATP        -0.8629
     12 O3A         1.5194   -1.3517   -4.4431 O.3       1 ATP        -0.8191
     13 O5'         2.5245   -1.6648   -2.1878 O.3       1 ATP        -0.5644
     14 C5'         2.2816   -0.2918   -1.9206 C.3       1 ATP         0.2062
     15 C4'         2.7248    0.0226   -0.4980 C.3       1 ATP         0.0971
     16 O4'         2.4697    1.4219   -0.2462 O.3       1 ATP        -0.3662
     17 C3'         1.9404   -0.7419    0.5596 C.3       1 ATP         0.0734
     18 O3'         2.7418   -0.8086    1.7389 O.3       1 ATP        -0.5671
     19 C2'         0.7477    0.1630    0.7858 C.3       1 ATP         0.0745
     20 O2'         0.1373   -0.0577    2.0407 O.3       1 ATP        -0.5794
     21 C1'         1.3733    1.5427    0.6747 C.3       1 ATP         0.3824
     22 N9          0.4520    2.5240    0.1767 N.pl3     1 ATP        -0.4324
     23 C8          0.2216    2.8192   -1.0985 C.ar      1 ATP         0.2662
     24 N7         -0.6906    3.7763   -1.2384 N.pl3     1 ATP        -0.4772
     25 C5         -1.0575    4.1037    0.0366 C.ar      1 ATP        -0.1305
     26 C6         -2.0291    5.0943    0.5330 C.ar      1 ATP         0.7186
     27 N6         -2.7093    5.8371   -0.2800 N.2       1 ATP        -0.8115
     28 N1         -2.1051    5.1136    1.9204 N.pl3     1 ATP        -0.8400
     29 C2         -1.3354    4.2774    2.7129 C.ar      1 ATP         0.6671
     30 N3         -0.4707    3.3945    2.2944 N.2       1 ATP        -0.5806
     31 C4         -0.3734    3.3525    0.9220 C.ar      1 ATP         0.2748
     32 HOG3        1.6719    2.1602   -8.2402 H         1 ATP         0.4327
     33 HOB2        1.4113   -3.4819   -6.3864 H         1 ATP         0.4701
     34 H5'1        2.8432    0.3119   -2.6398 H         1 ATP         0.0401
     35 H5'2        1.2128   -0.0927   -2.0428 H         1 ATP         0.0401
     36 H4'         3.8044   -0.1397   -0.4040 H         1 ATP         0.1136
     37 H3'         1.6764   -1.7639    0.2728 H         1 ATP         0.0693
     38 HO3'        2.2232   -1.2979    2.3953 H         1 ATP         0.4124
     39 H2'        -0.0011    0.0027    0.0003 H         1 ATP         0.0854
     40 HO2'       -0.1563   -0.9855    2.0596 H         1 ATP         0.4367
     41 H1'         1.7826    1.9024    1.6451 H         1 ATP         0.1343
     42 H8          0.7125    2.3429   -1.9292 H         1 ATP         0.3302
     43 HN62       -3.3217    6.4517    0.2629 H         1 ATP         0.4160
     44 H2         -1.5188    4.4223    3.7890 H         1 ATP         0.0756
     45 H45        -2.7470    5.7627    2.3665 H         1 ATP         0.4587
     46 H46        -1.0305    4.1680   -2.1054 H         1 ATP         0.5254
@<TRIPOS>BOND
     1    1    2 2
     2    1    3 1
     3    1    4 1
     4    1    8 1
     5    4   32 1
     6    5    6 2
     7    5    7 1
     8    5    8 1
     9    5   12 1
    10    7   33 1
    11    9   10 2
    12    9   11 1
    13    9   12 1
    14    9   13 1
    15   13   14 1
    16   14   15 1
    17   14   34 1
    18   14   35 1
    19   15   16 1
    20   15   17 1
    21   15   36 1
    22   16   21 1
    23   17   18 1
    24   17   19 1
    25   17   37 1
    26   18   38 1
    27   19   20 1
    28   19   21 1
    29   19   39 1
    30   20   40 1
    31   21   22 1
    32   21   41 1
    33   22   23 ar
    34   22   31 ar
    35   23   24 ar
    36   23   42 1
    37   24   25 ar
    38   24   46 1
    39   25   26 ar
    40   25   31 ar
    41   26   27 2
    42   26   28 ar
    43   27   43 1
    44   28   29 ar
    45   28   45 1
    46   29   30 ar
    47   29   44 1
    48   30   31 ar
@<TRIPOS>SUBSTRUCTURE
     1 ATP         1 GROUP 0 A     ****
@<TRIPOS>MOLECULE
[[[3,4-dihydroxy-5-(6-imino-7,8-dihydro-1~{H}-purin-8-ylium-9-yl)tetrahydrofuran-2-yl]methoxy-oxido-phosphoryl]oxy-hydroxy-phosphoryl] hydrogen phosphate
   46    48     1     0     0
SMALL
USER_CHARGES

@<TRIPOS>ATOM
      1 PG          0.1293   -2.7863   -5.7543 P.3       1 ATP         1.5595
      2 O1G        -0.1566   -2.0476   -4.4658 O.co2     1 ATP        -0.8438
      3 O2G         0.4174   -4.2711   -5.7512 O.co2     1 ATP        -0.8438
      4 O3G        -1.0917   -2.4974   -6.7992 O.3       1 ATP        -0.7800
      5 PB          2.8856   -1.8264   -6.1775 P.3       1 ATP         1.9223
      6 O1B         3.6666   -3.0991   -6.0338 O.2       1 ATP        -0.8953
      7 O2B         3.4318   -0.8114   -7.3110 O.3       1 ATP        -0.8165
      8 O3B         1.3244   -2.0143   -6.5517 O.3       1 ATP        -0.8247
      9 PA          3.9552   -0.2066   -3.9564 P.3       1 ATP         1.6157
     10 O1A         4.6399    0.8510   -4.7947 O.co2     1 ATP        -0.8629
     11 O2A         4.7577   -1.2974   -3.2811 O.co2     1 ATP        -0.8629
     12 O3A         2.7844   -0.9106   -4.8506 O.3       1 ATP        -0.8191
     13 O5'         3.0213    0.5153   -2.8245 O.3       1 ATP        -0.5644
     14 C5'         2.2816   -0.2918   -1.9206 C.3       1 ATP         0.2062
     15 C4'         2.7248    0.0226   -0.4980 C.3       1 ATP         0.0971
     16 O4'         2.4697    1.4219   -0.2462 O.3       1 ATP        -0.3662
     17 C3'         1.9404   -0.7419    0.5596 C.3       1 ATP         0.0734
     18 O3'         2.7418   -0.8086    1.7389 O.3       1 ATP        -0.5671
     19 C2'         0.7477    0.1630    0.7858 C.3       1 ATP         0.0745
     20 O2'         0.1373   -0.0577    2.0407 O.3       1 ATP        -0.5794
     21 C1'         1.3733    1.5427    0.6747 C.3       1 ATP         0.3824
     22 N9          0.4520    2.5240    0.1767 N.pl3     1 ATP        -0.4324
     23 C8          0.2216    2.8192   -1.0985 C.ar      1 ATP         0.2662
     24 N7         -0.6906    3.7763   -1.2384 N.pl3     1 ATP        -0.4772
     25 C5         -1.0575    4.1037    0.0366 C.ar      1 ATP        -0.1305
     26 C6         -2.0291    5.0943    0.5330 C.ar      1 ATP         0.7186
     27 N6         -2.7093    5.8371   -0.2800 N.2       1 ATP        -0.8115
     28 N1         -2.1051    5.1136    1.9204 N.pl3     1 ATP        -0.8400
     29 C2         -1.3354    4.2774    2.7129 C.ar      1 ATP         0.6671
     30 N3         -0.4707    3.3945    2.2944 N.2       1 ATP        -0.5806
     31 C4         -0.3734    3.3525    0.9220 C.ar      1 ATP         0.2748
     32 HOG3       -1.0528   -2.9102   -7.6882 H         1 ATP         0.4327
     33 HOB2        4.3458   -0.4632   -7.2355 H         1 ATP         0.4701
     34 H5'1        1.2163   -0.0770   -2.0471 H         1 ATP         0.0401
     35 H5'2        2.4655   -1.3443   -2.1563 H         1 ATP         0.0401
     36 H4'         3.8044   -0.1397   -0.4040 H         1 ATP         0.1136
     37 H3'         1.6764   -1.7639    0.2728 H         1 ATP         0.0693
     38 HO3'        2.2232   -1.2979    2.3953 H         1 ATP         0.4124
     39 H2'        -0.0011    0.0027    0.0003 H         1 ATP         0.0854
     40 HO2'       -0.6141    0.5574    2.1082 H         1 ATP         0.4367
     41 H1'         1.7826    1.9024    1.6451 H         1 ATP         0.1343
     42 H8          0.7125    2.3429   -1.9292 H         1 ATP         0.3302
     43 HN62       -3.3217    6.4517    0.2629 H         1 ATP         0.4160
     44 H2         -1.5188    4.4223    3.7890 H         1 ATP         0.0756
     45 H45        -2.7470    5.7627    2.3665 H         1 ATP         0.4587
     46 H46        -1.0305    4.1680   -2.1054 H         1 ATP         0.5254
@<TRIPOS>BOND
     1    1    2 2
     2    1    3 1
     3    1    4 1
     4    1    8 1
     5    4   32 1
     6    5    6 2
     7    5    7 1
     8    5    8 1
     9    5   12 1
    10    7   33 1
    11    9   10 2
    12    9   11 1
    13    9   12 1
    14    9   13 1
    15   13   14 1
    16   14   15 1
    17   14   34 1
    18   14   35 1
    19   15   16 1
    20   15   17 1
    21   15   36 1
    22   16   21 1
    23   17   18 1
    24   17   19 1
    25   17   37 1
    26   18   38 1
    27   19   20 1
    28   19   21 1
    29   19   39 1
    30   20   40 1
    31   21   22 1
    32   21   41 1
    33   22   23 ar
    34   22   31 ar
    35   23   24 ar
    36   23   42 1
    37   24   25 ar
    38   24   46 1
    39   25   26 ar
    40   25   31 ar
    41   26   27 2
    42   26   28 ar
    43   27   43 1
    44   28   29 ar
    45   28   45 1
    46   29   30 ar
    47   29   44 1
    48   30   31 ar
@<TRIPOS>SUBSTRUCTURE
     1 ATP         1 GROUP 0 A     ****
@<TRIPOS>MOLECULE
[[[3,4-dihydroxy-5-(6-imino-7,8-dihydro-1~{H}-purin-8-ylium-9-yl)tetrahydrofuran-2-yl]methoxy-oxido-phosphoryl]oxy-hydroxy-phosphoryl] hydrogen phosphate
   46    48     1     0     0
SMALL
USER_CHARGES

@<TRIPOS>ATOM
      1 PG          7.3572   -1.3780   -6.8851 P.3       1 ATP         1.5595
      2 O1G         8.4209   -2.2555   -6.2635 O.co2     1 ATP        -0.8438
      3 O2G         7.7197   -0.0650   -7.5424 O.co2     1 ATP        -0.8438
      4 O3G         6.5046   -2.2736   -7.9515 O.3       1 ATP        -0.7800
      5 PB          5.3153   -2.1589   -4.9055 P.3       1 ATP         1.9223
      6 O1B         4.4992   -3.1396   -5.6945 O.2       1 ATP        -0.8953
      7 O2B         6.4066   -2.8183   -3.9116 O.3       1 ATP        -0.8165
      8 O3B         6.1805   -1.1158   -5.7866 O.3       1 ATP        -0.8247
      9 PA          3.3342   -0.0516   -4.3262 P.3       1 ATP         1.6157
     10 O1A         2.1153   -0.7748   -4.8565 O.co2     1 ATP        -0.8629
     11 O2A         3.9830    1.0583   -5.1244 O.co2     1 ATP        -0.8629
     12 O3A         4.4805   -1.1538   -3.9557 O.3       1 ATP        -0.8191
     13 O5'         3.0213    0.5153   -2.8245 O.3       1 ATP        -0.5644
     14 C5'         2.2816   -0.2918   -1.9206 C.3       1 ATP         0.2062
     15 C4'         2.7248    0.0226   -0.4980 C.3       1 ATP         0.0971
     16 O4'         2.4697    1.4219   -0.2462 O.3       1 ATP        -0.3662
     17 C3'         1.9404   -0.7419    0.5596 C.3       1 ATP         0.0734
     18 O3'         2.7418   -0.8086    1.7389 O.3       1 ATP        -0.5671
     19 C2'         0.7477    0.1630    0.7858 C.3       1 ATP         0.0745
     20 O2'         0.1373   -0.0577    2.0407 O.3       1 ATP        -0.5794
     21 C1'         1.3733    1.5427    0.6747 C.3       1 ATP         0.3824
     22 N9          0.4520    2.5240    0.1767 N.pl3     1 ATP        -0.4324
     23 C8          0.2216    2.8192   -1.0985 C.ar      1 ATP         0.2662
     24 N7         -0.6906    3.7763   -1.2384 N.pl3     1 ATP        -0.4772
     25 C5         -1.0575    4.1037    0.0366 C.ar      1 ATP        -0.1305
     26 C6         -2.0291    5.0943    0.5330 C.ar      1 ATP         0.7186
     27 N6         -2.7093    5.8371   -0.2800 N.2       1 ATP        -0.8115
     28 N1         -2.1051    5.1136    1.9204 N.pl3     1 ATP        -0.8400
     29 C2         -1.3354    4.2774    2.7129 C.ar      1 ATP         0.6671
     30 N3         -0.4707    3.3945    2.2944 N.2       1 ATP        -0.5806
     31 C4         -0.3734    3.3525    0.9220 C.ar      1 ATP         0.2748
     32 HOG3        5.7719   -1.8434   -8.4416 H         1 ATP         0.4327
     33 HOB2        7.1107   -3.3868   -4.2901 H         1 ATP         0.4701
     34 H5'1        1.2163   -0.0770   -2.0471 H         1 ATP         0.0401
     35 H5'2        2.4655   -1.3443   -2.1563 H         1 ATP         0.0401
     36 H4'         3.8044   -0.1397   -0.4040 H         1 ATP         0.1136
     37 H3'         1.6764   -1.7639    0.2728 H         1 ATP         0.0693
     38 HO3'        2.2232   -1.2979    2.3953 H         1 ATP         0.4124
     39 H2'        -0.0011    0.0027    0.0003 H         1 ATP         0.0854
     40 HO2'       -0.6141    0.5574    2.1082 H         1 ATP         0.4367
     41 H1'         1.7826    1.9024    1.6451 H         1 ATP         0.1343
     42 H8          0.7125    2.3429   -1.9292 H         1 ATP         0.3302
     43 HN62       -3.3217    6.4517    0.2629 H         1 ATP         0.4160
     44 H2         -1.5188    4.4223    3.7890 H         1 ATP         0.0756
     45 H45        -2.7470    5.7627    2.3665 H         1 ATP         0.4587
     46 H46        -1.0305    4.1680   -2.1054 H         1 ATP         0.5254
@<TRIPOS>BOND
     1    1    2 2
     2    1    3 1
     3    1    4 1
     4    1    8 1
     5    4   32 1
     6    5    6 2
     7    5    7 1
     8    5    8 1
     9    5   12 1
    10    7   33 1
    11    9   10 2
    12    9   11 1
    13    9   12 1
    14    9   13 1
    15   13   14 1
    16   14   15 1
    17   14   34 1
    18   14   35 1
    19   15   16 1
    20   15   17 1
    21   15   36 1
    22   16   21 1
    23   17   18 1
    24   17   19 1
    25   17   37 1
    26   18   38 1
    27   19   20 1
    28   19   21 1
    29   19   39 1
    30   20   40 1
    31   21   22 1
    32   21   41 1
    33   22   23 ar
    34   22   31 ar
    35   23   24 ar
    36   23   42 1
    37   24   25 ar
    38   24   46 1
    39   25   26 ar
    40   25   31 ar
    41   26   27 2
    42   26   28 ar
    43   27   43 1
    44   28   29 ar
    45   28   45 1
    46   29   30 ar
    47   29   44 1
    48   30   31 ar
@<TRIPOS>SUBSTRUCTURE
     1 ATP         1 GROUP 0 A     ****
@<TRIPOS>MOLECULE
[[[3,4-dihydroxy-5-(6-imino-7,8-dihydro-1~{H}-purin-8-ylium-9-yl)tetrahydrofuran-2-yl]methoxy-oxido-phosphoryl]oxy-hydroxy-phosphoryl] hydrogen phosphate
   46    48     1     0     0
SMALL
USER_CHARGES

@<TRIPOS>ATOM
      1 PG         -1.2406    0.0658   -5.5288 P.3       1 ATP         1.5595
      2 O1G        -0.9062    0.4587   -4.1069 O.co2     1 ATP        -0.8438
      3 O2G        -1.9369   -1.2425   -5.8300 O.co2     1 ATP        -0.8438
      4 O3G        -2.0944    1.2773   -6.2140 O.3       1 ATP        -0.7800
      5 PB          1.4736   -0.6958   -6.3955 P.3       1 ATP         1.9223
      6 O1B         1.3043   -2.1665   -6.6374 O.2       1 ATP        -0.8953
      7 O2B         2.4427    0.0640   -7.4430 O.3       1 ATP        -0.8165
      8 O3B         0.1099    0.1711   -6.4372 O.3       1 ATP        -0.8247
      9 PA          3.4842   -0.6654   -4.2373 P.3       1 ATP         1.6157
     10 O1A         4.6104   -0.0320   -5.0250 O.co2     1 ATP        -0.8629
     11 O2A         3.4853   -2.1498   -3.9435 O.co2     1 ATP        -0.8629
     12 O3A         2.0649   -0.2850   -4.9494 O.3       1 ATP        -0.8191
     13 O5'         3.2903    0.1346   -2.8241 O.3       1 ATP        -0.5644
     14 C5'         2.2816   -0.2918   -1.9206 C.3       1 ATP         0.2062
     15 C4'         2.7248    0.0226   -0.4980 C.3       1 ATP         0.0971
     16 O4'         2.4697    1.4219   -0.2462 O.3       1 ATP        -0.3662
     17 C3'         1.9404   -0.7419    0.5596 C.3       1 ATP         0.0734
     18 O3'         2.7418   -0.8086    1.7389 O.3       1 ATP        -0.5671
     19 C2'         0.7477    0.1630    0.7858 C.3       1 ATP         0.0745
     20 O2'         0.1373   -0.0577    2.0407 O.3       1 ATP        -0.5794
     21 C1'         1.3733    1.5427    0.6747 C.3       1 ATP         0.3824
     22 N9          0.4520    2.5240    0.1767 N.pl3     1 ATP        -0.4324
     23 C8          0.2216    2.8192   -1.0985 C.ar      1 ATP         0.2662
     24 N7         -0.6906    3.7763   -1.2384 N.pl3     1 ATP        -0.4772
     25 C5         -1.0575    4.1037    0.0366 C.ar      1 ATP        -0.1305
     26 C6         -2.0291    5.0943    0.5330 C.ar      1 ATP         0.7186
     27 N6         -2.7093    5.8371   -0.2800 N.2       1 ATP        -0.8115
     28 N1         -2.1051    5.1136    1.9204 N.pl3     1 ATP        -0.8400
     29 C2         -1.3354    4.2774    2.7129 C.ar      1 ATP         0.6671
     30 N3         -0.4707    3.3945    2.2944 N.2       1 ATP        -0.5806
     31 C4         -0.3734    3.3525    0.9220 C.ar      1 ATP         0.2748
     32 HOG3       -2.3885    1.1730   -7.1440 H         1 ATP         0.4327
     33 HOB2        3.3778   -0.2227   -7.5181 H         1 ATP         0.4701
     34 H5'1        1.3514    0.2330   -2.1577 H         1 ATP         0.0401
     35 H5'2        2.1280   -1.3678   -2.0460 H         1 ATP         0.0401
     36 H4'         3.8044   -0.1397   -0.4040 H         1 ATP         0.1136
     37 H3'         1.6764   -1.7639    0.2728 H         1 ATP         0.0693
     38 HO3'        2.2232   -1.2979    2.3953 H         1 ATP         0.4124
     39 H2'        -0.0011    0.0027    0.0003 H         1 ATP         0.0854
     40 HO2'       -0.1563   -0.9855    2.0596 H         1 ATP         0.4367
     41 H1'         1.7826    1.9024    1.6451 H         1 ATP         0.1343
     42 H8          0.7125    2.3429   -1.9292 H         1 ATP         0.3302
     43 HN62       -3.3217    6.4517    0.2629 H         1 ATP         0.4160
     44 H2         -1.5188    4.4223    3.7890 H         1 ATP         0.0756
     45 H45        -2.7470    5.7627    2.3665 H         1 ATP         0.4587
     46 H46        -1.0305    4.1680   -2.1054 H         1 ATP         0.5254
@<TRIPOS>BOND
     1    1    2 2
     2    1    3 1
     3    1    4 1
     4    1    8 1
     5    4   32 1
     6    5    6 2
     7    5    7 1
     8    5    8 1
     9    5   12 1
    10    7   33 1
    11    9   10 2
    12    9   11 1
    13    9   12 1
    14    9   13 1
    15   13   14 1
    16   14   15 1
    17   14   34 1
    18   14   35 1
    19   15   16 1
    20   15   17 1
    21   15   36 1
    22   16   21 1
    23   17   18 1
    24   17   19 1
    25   17   37 1
    26   18   38 1
    27   19   20 1
    28   19   21 1
    29   19   39 1
    30   20   40 1
    31   21   22 1
    32   21   41 1
    33   22   23 ar
    34   22   31 ar
    35   23   24 ar
    36   23   42 1
    37   24   25 ar
    38   24   46 1
    39   25   26 ar
    40   25   31 ar
    41   26   27 2
    42   26   28 ar
    43   27   43 1
    44   28   29 ar
    45   28   45 1
    46   29   30 ar
    47   29   44 1
    48   30   31 ar
@<TRIPOS>SUBSTRUCTURE
     1 ATP         1 GROUP 0 A     ****
@<TRIPOS>MOLECULE
[[[3,4-dihydroxy-5-(6-imino-7,8-dihydro-1~{H}-purin-8-ylium-9-yl)tetrahydrofuran-2-yl]methoxy-oxido-phosphoryl]oxy-hydroxy-phosphoryl] hydrogen phosphate
   46    48     1     0     0
SMALL
USER_CHARGES

@<TRIPOS>ATOM
      1 PG          7.7236   -0.7470   -0.7889 P.3       1 ATP         1.5595
      2 O1G         6.5866    0.1096   -0.2778 O.co2     1 ATP        -0.8438
      3 O2G         8.9891   -0.1177   -1.3275 O.co2     1 ATP        -0.8438
      4 O3G         8.1315   -1.8159    0.3761 O.3       1 ATP        -0.7800
      5 PB          6.5206   -1.5364   -3.3633 P.3       1 ATP         1.9223
      6 O1B         7.4453   -0.8694   -4.3380 O.2       1 ATP        -0.8953
      7 O2B         5.9829   -2.9925   -3.8151 O.3       1 ATP        -0.8165
      8 O3B         7.1397   -1.7960   -1.8928 O.3       1 ATP        -0.8247
      9 PA          3.9552   -0.2066   -3.9564 P.3       1 ATP         1.6157
     10 O1A         3.2311   -1.4130   -4.5133 O.co2     1 ATP        -0.8629
     11 O2A         4.4938    0.8658   -4.8783 O.co2     1 ATP        -0.8629
     12 O3A         5.1749   -0.7199   -2.9999 O.3       1 ATP        -0.8191
     13 O5'         3.0213    0.5153   -2.8245 O.3       1 ATP        -0.5644
     14 C5'         2.2816   -0.2918   -1.9206 C.3       1 ATP         0.2062
     15 C4'         2.7248    0.0226   -0.4980 C.3       1 ATP         0.0971
     16 O4'         2.4697    1.4219   -0.2462 O.3       1 ATP        -0.3662
     17 C3'         1.9404   -0.7419    0.5596 C.3       1 ATP         0.0734
     18 O3'         2.7418   -0.8086    1.7389 O.3       1 ATP        -0.5671
     19 C2'         0.7477    0.1630    0.7858 C.3       1 ATP         0.0745
     20 O2'         0.1373   -0.0577    2.0407 O.3       1 ATP        -0.5794
     21 C1'         1.3733    1.5427    0.6747 C.3       1 ATP         0.3824
     22 N9          0.4520    2.5240    0.1767 N.pl3     1 ATP        -0.4324
     23 C8          0.2216    2.8192   -1.0985 C.ar      1 ATP         0.2662
     24 N7         -0.6906    3.7763   -1.2384 N.pl3     1 ATP        -0.4772
     25 C5         -1.0575    4.1037    0.0366 C.ar      1 ATP        -0.1305
     26 C6         -2.0291    5.0943    0.5330 C.ar      1 ATP         0.7186
     27 N6         -2.7093    5.8371   -0.2800 N.2       1 ATP        -0.8115
     28 N1         -2.1051    5.1136    1.9204 N.pl3     1 ATP        -0.8400
     29 C2         -1.3354    4.2774    2.7129 C.ar      1 ATP         0.6671
     30 N3         -0.4707    3.3945    2.2944 N.2       1 ATP        -0.5806
     31 C4         -0.3734    3.3525    0.9220 C.ar      1 ATP         0.2748
     32 HOG3        8.8598   -2.4476    0.1957 H         1 ATP         0.4327
     33 HOB2        5.4680   -3.0713   -4.6463 H         1 ATP         0.4701
     34 H5'1        1.2163   -0.0770   -2.0471 H         1 ATP         0.0401
     35 H5'2        2.4655   -1.3443   -2.1563 H         1 ATP         0.0401
     36 H4'         3.8044   -0.1397   -0.4040 H         1 ATP         0.1136
     37 H3'         1.6764   -1.7639    0.2728 H         1 ATP         0.0693
     38 HO3'        2.2232   -1.2979    2.3953 H         1 ATP         0.4124
     39 H2'        -0.0011    0.0027    0.0003 H         1 ATP         0.0854
     40 HO2'       -0.6141    0.5574    2.1082 H         1 ATP         0.4367
     41 H1'         1.7826    1.9024    1.6451 H         1 ATP         0.1343
     42 H8          0.7125    2.3429   -1.9292 H         1 ATP         0.3302
     43 HN62       -3.3217    6.4517    0.2629 H         1 ATP         0.4160
     44 H2         -1.5188    4.4223    3.7890 H         1 ATP         0.0756
     45 H45        -2.7470    5.7627    2.3665 H         1 ATP         0.4587
     46 H46        -1.0305    4.1680   -2.1054 H         1 ATP         0.5254
@<TRIPOS>BOND
     1    1    2 2
     2    1    3 1
     3    1    4 1
     4    1    8 1
     5    4   32 1
     6    5    6 2
     7    5    7 1
     8    5    8 1
     9    5   12 1
    10    7   33 1
    11    9   10 2
    12    9   11 1
    13    9   12 1
    14    9   13 1
    15   13   14 1
    16   14   15 1
    17   14   34 1
    18   14   35 1
    19   15   16 1
    20   15   17 1
    21   15   36 1
    22   16   21 1
    23   17   18 1
    24   17   19 1
    25   17   37 1
    26   18   38 1
    27   19   20 1
    28   19   21 1
    29   19   39 1
    30   20   40 1
    31   21   22 1
    32   21   41 1
    33   22   23 ar
    34   22   31 ar
    35   23   24 ar
    36   23   42 1
    37   24   25 ar
    38   24   46 1
    39   25   26 ar
    40   25   31 ar
    41   26   27 2
    42   26   28 ar
    43   27   43 1
    44   28   29 ar
    45   28   45 1
    46   29   30 ar
    47   29   44 1
    48   30   31 ar
@<TRIPOS>SUBSTRUCTURE
     1 ATP         1 GROUP 0 A     ****
@<TRIPOS>MOLECULE
[[[3,4-dihydroxy-5-(6-imino-7,8-dihydro-1~{H}-purin-8-ylium-9-yl)tetrahydrofuran-2-yl]methoxy-oxido-phosphoryl]oxy-hydroxy-phosphoryl] hydrogen phosphate
   46    48     1     0     0
SMALL
USER_CHARGES

@<TRIPOS>ATOM
      1 PG          2.6102   -4.8205   -3.8179 P.3       1 ATP         1.5595
      2 O1G         1.2087   -5.1266   -4.2972 O.co2     1 ATP        -0.8438
      3 O2G         2.8422   -4.0241   -2.5533 O.co2     1 ATP        -0.8438
      4 O3G         3.4377   -6.2237   -3.7059 O.3       1 ATP        -0.7800
      5 PB          3.2610   -2.7067   -5.7687 P.3       1 ATP         1.9223
      6 O1B         4.2382   -2.4179   -6.8697 O.2       1 ATP        -0.8953
      7 O2B         1.7069   -2.7044   -6.2138 O.3       1 ATP        -0.8165
      8 O3B         3.4482   -4.1366   -5.0385 O.3       1 ATP        -0.8247
      9 PA          3.0673   -0.0858   -4.4292 P.3       1 ATP         1.6157
     10 O1A         1.6266    0.2116   -4.7838 O.co2     1 ATP        -0.8629
     11 O2A         4.2011    0.5980   -5.1618 O.co2     1 ATP        -0.8629
     12 O3A         3.3063   -1.6991   -4.5069 O.3       1 ATP        -0.8191
     13 O5'         3.2903    0.1346   -2.8241 O.3       1 ATP        -0.5644
     14 C5'         2.2816   -0.2918   -1.9206 C.3       1 ATP         0.2062
     15 C4'         2.7248    0.0226   -0.4980 C.3       1 ATP         0.0971
     16 O4'         2.4697    1.4219   -0.2462 O.3       1 ATP        -0.3662
     17 C3'         1.9404   -0.7419    0.5596 C.3       1 ATP         0.0734
     18 O3'         2.7418   -0.8086    1.7389 O.3       1 ATP        -0.5671
     19 C2'         0.7477    0.1630    0.7858 C.3       1 ATP         0.0745
     20 O2'         0.1373   -0.0577    2.0407 O.3       1 ATP        -0.5794
     21 C1'         1.3733    1.5427    0.6747 C.3       1 ATP         0.3824
     22 N9          0.4520    2.5240    0.1767 N.pl3     1 ATP        -0.4324
     23 C8          0.2216    2.8192   -1.0985 C.ar      1 ATP         0.2662
     24 N7         -0.6906    3.7763   -1.2384 N.pl3     1 ATP        -0.4772
     25 C5         -1.0575    4.1037    0.0366 C.ar      1 ATP        -0.1305
     26 C6         -2.0291    5.0943    0.5330 C.ar      1 ATP         0.7186
     27 N6         -2.7093    5.8371   -0.2800 N.2       1 ATP        -0.8115
     28 N1         -2.1051    5.1136    1.9204 N.pl3     1 ATP        -0.8400
     29 C2         -1.3354    4.2774    2.7129 C.ar      1 ATP         0.6671
     30 N3         -0.4707    3.3945    2.2944 N.2       1 ATP        -0.5806
     31 C4         -0.3734    3.3525    0.9220 C.ar      1 ATP         0.2748
     32 HOG3        4.3709   -6.1926   -3.4054 H         1 ATP         0.4327
     33 HOB2        1.4089   -3.3386   -6.9003 H         1 ATP         0.4701
     34 H5'1        1.3514    0.2330   -2.1577 H         1 ATP         0.0401
     35 H5'2        2.1280   -1.3678   -2.0460 H         1 ATP         0.0401
     36 H4'         3.8044   -0.1397   -0.4040 H         1 ATP         0.1136
     37 H3'         1.6764   -1.7639    0.2728 H         1 ATP         0.0693
     38 HO3'        3.5554   -1.2733    1.4914 H         1 ATP         0.4124
     39 H2'        -0.0011    0.0027    0.0003 H         1 ATP         0.0854
     40 HO2'       -0.1563   -0.9855    2.0596 H         1 ATP         0.4367
     41 H1'         1.7826    1.9024    1.6451 H         1 ATP         0.1343
     42 H8          0.7125    2.3429   -1.9292 H         1 ATP         0.3302
     43 HN62       -3.3217    6.4517    0.2629 H         1 ATP         0.4160
     44 H2         -1.5188    4.4223    3.7890 H         1 ATP         0.0756
     45 H45        -2.7470    5.7627    2.3665 H         1 ATP         0.4587
     46 H46        -1.0305    4.1680   -2.1054 H         1 ATP         0.5254
@<TRIPOS>BOND
     1    1    2 2
     2    1    3 1
     3    1    4 1
     4    1    8 1
     5    4   32 1
     6    5    6 2
     7    5    7 1
     8    5    8 1
     9    5   12 1
    10    7   33 1
    11    9   10 2
    12    9   11 1
    13    9   12 1
    14    9   13 1
    15   13   14 1
    16   14   15 1
    17   14   34 1
    18   14   35 1
    19   15   16 1
    20   15   17 1
    21   15   36 1
    22   16   21 1
    23   17   18 1
    24   17   19 1
    25   17   37 1
    26   18   38 1
    27   19   20 1
    28   19   21 1
    29   19   39 1
    30   20   40 1
    31   21   22 1
    32   21   41 1
    33   22   23 ar
    34   22   31 ar
    35   23   24 ar
    36   23   42 1
    37   24   25 ar
    38   24   46 1
    39   25   26 ar
    40   25   31 ar
    41   26   27 2
    42   26   28 ar
    43   27   43 1
    44   28   29 ar
    45   28   45 1
    46   29   30 ar
    47   29   44 1
    48   30   31 ar
@<TRIPOS>SUBSTRUCTURE
     1 ATP         1 GROUP 0 A     ****
@<TRIPOS>MOLECULE
[[[3,4-dihydroxy-5-(6-imino-7,8-dihydro-1~{H}-purin-8-ylium-9-yl)tetrahydrofuran-2-yl]methoxy-oxido-phosphoryl]oxy-hydroxy-phosphoryl] hydrogen phosphate
   46    48     1     0     0
SMALL
USER_CHARGES

@<TRIPOS>ATOM
      1 PG          3.0763    4.6228   -5.9526 P.3       1 ATP         1.5595
      2 O1G         1.7883    5.3234   -6.3238 O.co2     1 ATP        -0.8438
      3 O2G         4.2553    4.6111   -6.8999 O.co2     1 ATP        -0.8438
      4 O3G         3.5783    5.1928   -4.5072 O.3       1 ATP        -0.7800
      5 PB          1.6898    2.5225   -4.4150 P.3       1 ATP         1.9223
      6 O1B         1.9223    2.9854   -3.0071 O.2       1 ATP        -0.8953
      7 O2B         0.2449    2.9037   -5.0320 O.3       1 ATP        -0.8165
      8 O3B         2.7354    3.0908   -5.5089 O.3       1 ATP        -0.8247
      9 PA          3.0673   -0.0858   -4.4292 P.3       1 ATP         1.6157
     10 O1A         4.2678    0.4442   -5.1827 O.co2     1 ATP        -0.8629
     11 O2A         2.5799   -1.5015   -4.6484 O.co2     1 ATP        -0.8629
     12 O3A         1.8103    0.9304   -4.6600 O.3       1 ATP        -0.8191
     13 O5'         3.2903    0.1346   -2.8241 O.3       1 ATP        -0.5644
     14 C5'         2.2816   -0.2918   -1.9206 C.3       1 ATP         0.2062
     15 C4'         2.7248    0.0226   -0.4980 C.3       1 ATP         0.0971
     16 O4'         2.4697    1.4219   -0.2462 O.3       1 ATP        -0.3662
     17 C3'         1.9404   -0.7419    0.5596 C.3       1 ATP         0.0734
     18 O3'         2.7418   -0.8086    1.7389 O.3       1 ATP        -0.5671
     19 C2'         0.7477    0.1630    0.7858 C.3       1 ATP         0.0745
     20 O2'         0.1373   -0.0577    2.0407 O.3       1 ATP        -0.5794
     21 C1'         1.3733    1.5427    0.6747 C.3       1 ATP         0.3824
     22 N9          0.4520    2.5240    0.1767 N.pl3     1 ATP        -0.4324
     23 C8         -0.2004    2.4829   -0.9804 C.ar      1 ATP         0.2662
     24 N7         -0.9830    3.5431   -1.1568 N.pl3     1 ATP        -0.4772
     25 C5         -0.8095    4.3012   -0.0331 C.ar      1 ATP        -0.1305
     26 C6         -1.4065    5.5904    0.3585 C.ar      1 ATP         0.7186
     27 N6         -2.2501    6.2030   -0.4084 N.2       1 ATP        -0.8115
     28 N1         -0.9585    6.0272    1.5994 N.pl3     1 ATP        -0.8400
     29 C2         -0.0508    5.3009    2.3532 C.ar      1 ATP         0.6671
     30 N3          0.4890    4.1592    2.0257 N.2       1 ATP        -0.5806
     31 C4          0.0637    3.7006    0.7995 C.ar      1 ATP         0.2748
     32 HOG3        4.4078    4.8335   -4.1263 H         1 ATP         0.4327
     33 HOB2       -0.5636    2.5691   -4.5885 H         1 ATP         0.4701
     34 H5'1        1.3514    0.2330   -2.1577 H         1 ATP         0.0401
     35 H5'2        2.1280   -1.3678   -2.0460 H         1 ATP         0.0401
     36 H4'         3.8044   -0.1397   -0.4040 H         1 ATP         0.1136
     37 H3'         1.6764   -1.7639    0.2728 H         1 ATP         0.0693
     38 HO3'        2.2232   -1.2979    2.3953 H         1 ATP         0.4124
     39 H2'        -0.0011    0.0027    0.0003 H         1 ATP         0.0854
     40 HO2'       -0.6141    0.5574    2.1082 H         1 ATP         0.4367
     41 H1'         1.7826    1.9024    1.6451 H         1 ATP         0.1343
     42 H8         -0.1116    1.6863   -1.6984 H         1 ATP         0.3302
     43 HN62       -2.5420    7.0730    0.0447 H         1 ATP         0.4160
     44 H2          0.1969    5.7893    3.3086 H         1 ATP         0.0756
     45 H45        -1.3097    6.9080    1.9642 H         1 ATP         0.4587
     46 H46        -1.5735    3.7351   -1.9538 H         1 ATP         0.5254
@<TRIPOS>BOND
     1    1    2 2
     2    1    3 1
     3    1    4 1
     4    1    8 1
     5    4   32 1
     6    5    6 2
     7    5    7 1
     8    5    8 1
     9    5   12 1
    10    7   33 1
    11    9   10 2
    12    9   11 1
    13    9   12 1
    14    9   13 1
    15   13   14 1
    16   14   15 1
    17   14   34 1
    18   14   35 1
    19   15   16 1
    20   15   17 1
    21   15   36 1
    22   16   21 1
    23   17   18 1
    24   17   19 1
    25   17   37 1
    26   18   38 1
    27   19   20 1
    28   19   21 1
    29   19   39 1
    30   20   40 1
    31   21   22 1
    32   21   41 1
    33   22   23 ar
    34   22   31 ar
    35   23   24 ar
    36   23   42 1
    37   24   25 ar
    38   24   46 1
    39   25   26 ar
    40   25   31 ar
    41   26   27 2
    42   26   28 ar
    43   27   43 1
    44   28   29 ar
    45   28   45 1
    46   29   30 ar
    47   29   44 1
    48   30   31 ar
@<TRIPOS>SUBSTRUCTURE
     1 ATP         1 GROUP 0 A     ****
@<TRIPOS>MOLECULE
[[[3,4-dihydroxy-5-(6-imino-7,8-dihydro-1~{H}-purin-8-ylium-9-yl)tetrahydrofuran-2-yl]methoxy-oxido-phosphoryl]oxy-hydroxy-phosphoryl] hydrogen phosphate
   46    48     1     0     0
SMALL
USER_CHARGES

@<TRIPOS>ATOM
      1 PG          7.4473   -0.8242   -3.2185 P.3       1 ATP         1.5595
      2 O1G         8.2254   -2.1074   -3.4075 O.co2     1 ATP        -0.8438
      3 O2G         6.5780   -0.6152   -1.9987 O.co2     1 ATP        -0.8438
      4 O3G         8.4832    0.4324   -3.3383 O.3       1 ATP        -0.7800
      5 PB          5.3037   -1.3495   -5.1747 P.3       1 ATP         1.9223
      6 O1B         4.7378   -0.7809   -6.4423 O.2       1 ATP        -0.8953
      7 O2B         5.8423   -2.8697   -5.2859 O.3       1 ATP        -0.8165
      8 O3B         6.5608   -0.5419   -4.5581 O.3       1 ATP        -0.8247
      9 PA          2.8603   -2.1314   -3.7189 P.3       1 ATP         1.6157
     10 O1A         3.0799   -3.6282   -3.7534 O.co2     1 ATP        -0.8629
     11 O2A         1.8577   -1.4754   -4.6432 O.co2     1 ATP        -0.8629
     12 O3A         4.2991   -1.3837   -3.9101 O.3       1 ATP        -0.8191
     13 O5'         2.5245   -1.6648   -2.1878 O.3       1 ATP        -0.5644
     14 C5'         2.2816   -0.2918   -1.9206 C.3       1 ATP         0.2062
     15 C4'         2.7248    0.0226   -0.4980 C.3       1 ATP         0.0971
     16 O4'         2.4697    1.4219   -0.2462 O.3       1 ATP        -0.3662
     17 C3'         1.9404   -0.7419    0.5596 C.3       1 ATP         0.0734
     18 O3'         2.7418   -0.8086    1.7389 O.3       1 ATP        -0.5671
     19 C2'         0.7477    0.1630    0.7858 C.3       1 ATP         0.0745
     20 O2'         0.1373   -0.0577    2.0407 O.3       1 ATP        -0.5794
     21 C1'         1.3733    1.5427    0.6747 C.3       1 ATP         0.3824
     22 N9          0.4520    2.5240    0.1767 N.pl3     1 ATP        -0.4324
     23 C8          0.2216    2.8192   -1.0985 C.ar      1 ATP         0.2662
     24 N7         -0.6906    3.7763   -1.2384 N.pl3     1 ATP        -0.4772
     25 C5         -1.0575    4.1037    0.0366 C.ar      1 ATP        -0.1305
     26 C6         -2.0291    5.0943    0.5330 C.ar      1 ATP         0.7186
     27 N6         -2.7093    5.8371   -0.2800 N.2       1 ATP        -0.8115
     28 N1         -2.1051    5.1136    1.9204 N.pl3     1 ATP        -0.8400
     29 C2         -1.3354    4.2774    2.7129 C.ar      1 ATP         0.6671
     30 N3         -0.4707    3.3945    2.2944 N.2       1 ATP        -0.5806
     31 C4         -0.3734    3.3525    0.9220 C.ar      1 ATP         0.2748
     32 HOG3        8.1280    1.3412   -3.2377 H         1 ATP         0.4327
     33 HOB2        5.2148   -3.5776   -5.5453 H         1 ATP         0.4701
     34 H5'1        2.8432    0.3119   -2.6398 H         1 ATP         0.0401
     35 H5'2        1.2128   -0.0927   -2.0428 H         1 ATP         0.0401
     36 H4'         3.8044   -0.1397   -0.4040 H         1 ATP         0.1136
     37 H3'         1.6764   -1.7639    0.2728 H         1 ATP         0.0693
     38 HO3'        2.2232   -1.2979    2.3953 H         1 ATP         0.4124
     39 H2'        -0.0011    0.0027    0.0003 H         1 ATP         0.0854
     40 HO2'       -0.6141    0.5574    2.1082 H         1 ATP         0.4367
     41 H1'         1.7826    1.9024    1.6451 H         1 ATP         0.1343
     42 H8          0.7125    2.3429   -1.9292 H         1 ATP         0.3302
     43 HN62       -3.3217    6.4517    0.2629 H         1 ATP         0.4160
     44 H2         -1.5188    4.4223    3.7890 H         1 ATP         0.0756
     45 H45        -2.7470    5.7627    2.3665 H         1 ATP         0.4587
     46 H46        -1.0305    4.1680   -2.1054 H         1 ATP         0.5254
@<TRIPOS>BOND
     1    1    2 2
     2    1    3 1
     3    1    4 1
     4    1    8 1
     5    4   32 1
     6    5    6 2
     7    5    7 1
     8    5    8 1
     9    5   12 1
    10    7   33 1
    11    9   10 2
    12    9   11 1
    13    9   12 1
    14    9   13 1
    15   13   14 1
    16   14   15 1
    17   14   34 1
    18   14   35 1
    19   15   16 1
    20   15   17 1
    21   15   36 1
    22   16   21 1
    23   17   18 1
    24   17   19 1
    25   17   37 1
    26   18   38 1
    27   19   20 1
    28   19   21 1
    29   19   39 1
    30   20   40 1
    31   21   22 1
    32   21   41 1
    33   22   23 ar
    34   22   31 ar
    35   23   24 ar
    36   23   42 1
    37   24   25 ar
    38   24   46 1
    39   25   26 ar
    40   25   31 ar
    41   26   27 2
    42   26   28 ar
    43   27   43 1
    44   28   29 ar
    45   28   45 1
    46   29   30 ar
    47   29   44 1
    48   30   31 ar
@<TRIPOS>SUBSTRUCTURE
     1 ATP         1 GROUP 0 A     ****
@<TRIPOS>MOLECULE
[[[3,4-dihydroxy-5-(6-imino-7,8-dihydro-1~{H}-purin-8-ylium-9-yl)tetrahydrofuran-2-yl]methoxy-oxido-phosphoryl]oxy-hydroxy-phosphoryl] hydrogen phosphate
   46    48     1     0     0
SMALL
USER_CHARGES

@<TRIPOS>ATOM
      1 PG          4.6910   -2.1711   -8.1974 P.3       1 ATP         1.5595
      2 O1G         5.9529   -1.3985   -8.5110 O.co2     1 ATP        -0.8438
      3 O2G         3.5747   -2.2805   -9.2120 O.co2     1 ATP        -0.8438
      4 O3G         5.1094   -3.6763   -7.7227 O.3       1 ATP        -0.7800
      5 PB          2.8428   -2.1789   -5.8992 P.3       1 ATP         1.9223
      6 O1B         1.5118   -2.1893   -6.5910 O.2       1 ATP        -0.8953
      7 O2B         3.3567   -3.6212   -5.3802 O.3       1 ATP        -0.8165
      8 O3B         4.0767   -1.6293   -6.7870 O.3       1 ATP        -0.8247
      9 PA          2.7406    0.3767   -4.4296 P.3       1 ATP         1.6157
     10 O1A         1.2942    0.7140   -4.7197 O.co2     1 ATP        -0.8629
     11 O2A         3.8609    1.0770   -5.1673 O.co2     1 ATP        -0.8629
     12 O3A         2.9483   -1.2346   -4.5928 O.3       1 ATP        -0.8191
     13 O5'         3.0213    0.5153   -2.8245 O.3       1 ATP        -0.5644
     14 C5'         2.2816   -0.2918   -1.9206 C.3       1 ATP         0.2062
     15 C4'         2.7248    0.0226   -0.4980 C.3       1 ATP         0.0971
     16 O4'         2.4697    1.4219   -0.2462 O.3       1 ATP        -0.3662
     17 C3'         1.9404   -0.7419    0.5596 C.3       1 ATP         0.0734
     18 O3'         2.7418   -0.8086    1.7389 O.3       1 ATP        -0.5671
     19 C2'         0.7477    0.1630    0.7858 C.3       1 ATP         0.0745
     20 O2'         0.1373   -0.0577    2.0407 O.3       1 ATP        -0.5794
     21 C1'         1.3733    1.5427    0.6747 C.3       1 ATP         0.3824
     22 N9          0.4520    2.5240    0.1767 N.pl3     1 ATP        -0.4324
     23 C8          0.2216    2.8192   -1.0985 C.ar      1 ATP         0.2662
     24 N7         -0.6906    3.7763   -1.2384 N.pl3     1 ATP        -0.4772
     25 C5         -1.0575    4.1037    0.0366 C.ar      1 ATP        -0.1305
     26 C6         -2.0291    5.0943    0.5330 C.ar      1 ATP         0.7186
     27 N6         -2.7093    5.8371   -0.2800 N.2       1 ATP        -0.8115
     28 N1         -2.1051    5.1136    1.9204 N.pl3     1 ATP        -0.8400
     29 C2         -1.3354    4.2774    2.7129 C.ar      1 ATP         0.6671
     30 N3         -0.4707    3.3945    2.2944 N.2       1 ATP        -0.5806
     31 C4         -0.3734    3.3525    0.9220 C.ar      1 ATP         0.2748
     32 HOG3        4.3959   -4.3052   -7.4824 H         1 ATP         0.4327
     33 HOB2        2.8113   -4.1135   -4.7303 H         1 ATP         0.4701
     34 H5'1        1.2163   -0.0770   -2.0471 H         1 ATP         0.0401
     35 H5'2        2.4655   -1.3443   -2.1563 H         1 ATP         0.0401
     36 H4'         3.8044   -0.1397   -0.4040 H         1 ATP         0.1136
     37 H3'         1.6764   -1.7639    0.2728 H         1 ATP         0.0693
     38 HO3'        2.2232   -1.2979    2.3953 H         1 ATP         0.4124
     39 H2'        -0.0011    0.0027    0.0003 H         1 ATP         0.0854
     40 HO2'       -0.6141    0.5574    2.1082 H         1 ATP         0.4367
     41 H1'         1.7826    1.9024    1.6451 H         1 ATP         0.1343
     42 H8          0.7125    2.3429   -1.9292 H         1 ATP         0.3302
     43 HN62       -3.3217    6.4517    0.2629 H         1 ATP         0.4160
     44 H2         -1.5188    4.4223    3.7890 H         1 ATP         0.0756
     45 H45        -2.7470    5.7627    2.3665 H         1 ATP         0.4587
     46 H46        -1.0305    4.1680   -2.1054 H         1 ATP         0.5254
@<TRIPOS>BOND
     1    1    2 2
     2    1    3 1
     3    1    4 1
     4    1    8 1
     5    4   32 1
     6    5    6 2
     7    5    7 1
     8    5    8 1
     9    5   12 1
    10    7   33 1
    11    9   10 2
    12    9   11 1
    13    9   12 1
    14    9   13 1
    15   13   14 1
    16   14   15 1
    17   14   34 1
    18   14   35 1
    19   15   16 1
    20   15   17 1
    21   15   36 1
    22   16   21 1
    23   17   18 1
    24   17   19 1
    25   17   37 1
    26   18   38 1
    27   19   20 1
    28   19   21 1
    29   19   39 1
    30   20   40 1
    31   21   22 1
    32   21   41 1
    33   22   23 ar
    34   22   31 ar
    35   23   24 ar
    36   23   42 1
    37   24   25 ar
    38   24   46 1
    39   25   26 ar
    40   25   31 ar
    41   26   27 2
    42   26   28 ar
    43   27   43 1
    44   28   29 ar
    45   28   45 1
    46   29   30 ar
    47   29   44 1
    48   30   31 ar
@<TRIPOS>SUBSTRUCTURE
     1 ATP         1 GROUP 0 A     ****
@<TRIPOS>MOLECULE
[[[3,4-dihydroxy-5-(6-imino-7,8-dihydro-1~{H}-purin-8-ylium-9-yl)tetrahydrofuran-2-yl]methoxy-oxido-phosphoryl]oxy-hydroxy-phosphoryl] hydrogen phosphate
   46    48     1     0     0
SMALL
USER_CHARGES

@<TRIPOS>ATOM
      1 PG         -1.3994   -0.7080   -4.6407 P.3       1 ATP         1.5595
      2 O1G        -2.3720    0.3856   -4.2589 O.co2     1 ATP        -0.8438
      3 O2G        -0.5399   -1.3831   -3.5953 O.co2     1 ATP        -0.8438
      4 O3G        -2.2118   -1.8591   -5.4661 O.3       1 ATP        -0.7800
      5 PB          0.6798    0.9946   -5.8556 P.3       1 ATP         1.9223
      6 O1B         1.3643    1.2125   -7.1725 O.2       1 ATP        -0.8953
      7 O2B        -0.0975    2.2835   -5.2658 O.3       1 ATP        -0.8165
      8 O3B        -0.4437   -0.1675   -5.8468 O.3       1 ATP        -0.8247
      9 PA          2.9230    1.2546   -3.9578 P.3       1 ATP         1.6157
     10 O1A         2.4619    2.5263   -3.2796 O.co2     1 ATP        -0.8629
     11 O2A         4.0434    1.2827   -4.9744 O.co2     1 ATP        -0.8629
     12 O3A         1.6316    0.5231   -4.6386 O.3       1 ATP        -0.8191
     13 O5'         3.2903    0.1346   -2.8241 O.3       1 ATP        -0.5644
     14 C5'         2.2816   -0.2918   -1.9206 C.3       1 ATP         0.2062
     15 C4'         2.7248    0.0226   -0.4980 C.3       1 ATP         0.0971
     16 O4'         2.4697    1.4219   -0.2462 O.3       1 ATP        -0.3662
     17 C3'         1.9404   -0.7419    0.5596 C.3       1 ATP         0.0734
     18 O3'         2.7418   -0.8086    1.7389 O.3       1 ATP        -0.5671
     19 C2'         0.7477    0.1630    0.7858 C.3       1 ATP         0.0745
     20 O2'         0.1373   -0.0577    2.0407 O.3       1 ATP        -0.5794
     21 C1'         1.3733    1.5427    0.6747 C.3       1 ATP         0.3824
     22 N9          0.4520    2.5240    0.1767 N.pl3     1 ATP        -0.4324
     23 C8         -0.2004    2.4829   -0.9804 C.ar      1 ATP         0.2662
     24 N7         -0.9830    3.5431   -1.1568 N.pl3     1 ATP        -0.4772
     25 C5         -0.8095    4.3012   -0.0331 C.ar      1 ATP        -0.1305
     26 C6         -1.4065    5.5904    0.3585 C.ar      1 ATP         0.7186
     27 N6         -2.2501    6.2030   -0.4084 N.2       1 ATP        -0.8115
     28 N1         -0.9585    6.0272    1.5994 N.pl3     1 ATP        -0.8400
     29 C2         -0.0508    5.3009    2.3532 C.ar      1 ATP         0.6671
     30 N3          0.4890    4.1592    2.0257 N.2       1 ATP        -0.5806
     31 C4          0.0637    3.7006    0.7995 C.ar      1 ATP         0.2748
     32 HOG3       -1.7153   -2.6423   -5.7857 H         1 ATP         0.4327
     33 HOB2        0.4121    3.1007   -5.0794 H         1 ATP         0.4701
     34 H5'1        1.3514    0.2330   -2.1577 H         1 ATP         0.0401
     35 H5'2        2.1280   -1.3678   -2.0460 H         1 ATP         0.0401
     36 H4'         3.8044   -0.1397   -0.4040 H         1 ATP         0.1136
     37 H3'         1.6764   -1.7639    0.2728 H         1 ATP         0.0693
     38 HO3'        2.2232   -1.2979    2.3953 H         1 ATP         0.4124
     39 H2'        -0.0011    0.0027    0.0003 H         1 ATP         0.0854
     40 HO2'       -0.6141    0.5574    2.1082 H         1 ATP         0.4367
     41 H1'         1.7826    1.9024    1.6451 H         1 ATP         0.1343
     42 H8         -0.1116    1.6863   -1.6984 H         1 ATP         0.3302
     43 HN62       -2.5420    7.0730    0.0447 H         1 ATP         0.4160
     44 H2          0.1969    5.7893    3.3086 H         1 ATP         0.0756
     45 H45        -1.3097    6.9080    1.9642 H         1 ATP         0.4587
     46 H46        -1.5735    3.7351   -1.9538 H         1 ATP         0.5254
@<TRIPOS>BOND
     1    1    2 2
     2    1    3 1
     3    1    4 1
     4    1    8 1
     5    4   32 1
     6    5    6 2
     7    5    7 1
     8    5    8 1
     9    5   12 1
    10    7   33 1
    11    9   10 2
    12    9   11 1
    13    9   12 1
    14    9   13 1
    15   13   14 1
    16   14   15 1
    17   14   34 1
    18   14   35 1
    19   15   16 1
    20   15   17 1
    21   15   36 1
    22   16   21 1
    23   17   18 1
    24   17   19 1
    25   17   37 1
    26   18   38 1
    27   19   20 1
    28   19   21 1
    29   19   39 1
    30   20   40 1
    31   21   22 1
    32   21   41 1
    33   22   23 ar
    34   22   31 ar
    35   23   24 ar
    36   23   42 1
    37   24   25 ar
    38   24   46 1
    39   25   26 ar
    40   25   31 ar
    41   26   27 2
    42   26   28 ar
    43   27   43 1
    44   28   29 ar
    45   28   45 1
    46   29   30 ar
    47   29   44 1
    48   30   31 ar
@<TRIPOS>SUBSTRUCTURE
     1 ATP         1 GROUP 0 A     ****
@<TRIPOS>MOLECULE
[[[3,4-dihydroxy-5-(6-imino-7,8-dihydro-1~{H}-purin-8-ylium-9-yl)tetrahydrofuran-2-yl]methoxy-oxido-phosphoryl]oxy-hydroxy-phosphoryl] hydrogen phosphate
   46    48     1     0     0
SMALL
USER_CHARGES

@<TRIPOS>ATOM
      1 PG          6.6806    1.0027   -4.0480 P.3       1 ATP         1.5595
      2 O1G         6.1993    1.9209   -5.1492 O.co2     1 ATP        -0.8438
      3 O2G         8.0335    1.2055   -3.4030 O.co2     1 ATP        -0.8438
      4 O3G         5.5470    0.9635   -2.8734 O.3       1 ATP        -0.7800
      5 PB          5.3037   -1.3495   -5.1747 P.3       1 ATP         1.9223
      6 O1B         4.7378   -0.7809   -6.4423 O.2       1 ATP        -0.8953
      7 O2B         5.8423   -2.8697   -5.2859 O.3       1 ATP        -0.8165
      8 O3B         6.5608   -0.5419   -4.5581 O.3       1 ATP        -0.8247
      9 PA          2.8603   -2.1314   -3.7189 P.3       1 ATP         1.6157
     10 O1A         3.0799   -3.6282   -3.7534 O.co2     1 ATP        -0.8629
     11 O2A         1.8577   -1.4754   -4.6432 O.co2     1 ATP        -0.8629
     12 O3A         4.2991   -1.3837   -3.9101 O.3       1 ATP        -0.8191
     13 O5'         2.5245   -1.6648   -2.1878 O.3       1 ATP        -0.5644
     14 C5'         2.2816   -0.2918   -1.9206 C.3       1 ATP         0.2062
     15 C4'         2.7248    0.0226   -0.4980 C.3       1 ATP         0.0971
     16 O4'         2.4697    1.4219   -0.2462 O.3       1 ATP        -0.3662
     17 C3'         1.9404   -0.7419    0.5596 C.3       1 ATP         0.0734
     18 O3'         2.7418   -0.8086    1.7389 O.3       1 ATP        -0.5671
     19 C2'         0.7477    0.1630    0.7858 C.3       1 ATP         0.0745
     20 O2'         0.1373   -0.0577    2.0407 O.3       1 ATP        -0.5794
     21 C1'         1.3733    1.5427    0.6747 C.3       1 ATP         0.3824
     22 N9          0.4520    2.5240    0.1767 N.pl3     1 ATP        -0.4324
     23 C8          0.2216    2.8192   -1.0985 C.ar      1 ATP         0.2662
     24 N7         -0.6906    3.7763   -1.2384 N.pl3     1 ATP        -0.4772
     25 C5         -1.0575    4.1037    0.0366 C.ar      1 ATP        -0.1305
     26 C6         -2.0291    5.0943    0.5330 C.ar      1 ATP         0.7186
     27 N6         -2.7093    5.8371   -0.2800 N.2       1 ATP        -0.8115
     28 N1         -2.1051    5.1136    1.9204 N.pl3     1 ATP        -0.8400
     29 C2         -1.3354    4.2774    2.7129 C.ar      1 ATP         0.6671
     30 N3         -0.4707    3.3945    2.2944 N.2       1 ATP        -0.5806
     31 C4         -0.3734    3.3525    0.9220 C.ar      1 ATP         0.2748
     32 HOG3        5.7130    0.4069   -2.0829 H         1 ATP         0.4327
     33 HOB2        5.2148   -3.5776   -5.5453 H         1 ATP         0.4701
     34 H5'1        2.8432    0.3119   -2.6398 H         1 ATP         0.0401
     35 H5'2        1.2128   -0.0927   -2.0428 H         1 ATP         0.0401
     36 H4'         3.8044   -0.1397   -0.4040 H         1 ATP         0.1136
     37 H3'         1.6764   -1.7639    0.2728 H         1 ATP         0.0693
     38 HO3'        2.2232   -1.2979    2.3953 H         1 ATP         0.4124
     39 H2'        -0.0011    0.0027    0.0003 H         1 ATP         0.0854
     40 HO2'       -0.6141    0.5574    2.1082 H         1 ATP         0.4367
     41 H1'         1.7826    1.9024    1.6451 H         1 ATP         0.1343
     42 H8          0.7125    2.3429   -1.9292 H         1 ATP         0.3302
     43 HN62       -3.3217    6.4517    0.2629 H         1 ATP         0.4160
     44 H2         -1.5188    4.4223    3.7890 H         1 ATP         0.0756
     45 H45        -2.7470    5.7627    2.3665 H         1 ATP         0.4587
     46 H46        -1.0305    4.1680   -2.1054 H         1 ATP         0.5254
@<TRIPOS>BOND
     1    1    2 2
     2    1    3 1
     3    1    4 1
     4    1    8 1
     5    4   32 1
     6    5    6 2
     7    5    7 1
     8    5    8 1
     9    5   12 1
    10    7   33 1
    11    9   10 2
    12    9   11 1
    13    9   12 1
    14    9   13 1
    15   13   14 1
    16   14   15 1
    17   14   34 1
    18   14   35 1
    19   15   16 1
    20   15   17 1
    21   15   36 1
    22   16   21 1
    23   17   18 1
    24   17   19 1
    25   17   37 1
    26   18   38 1
    27   19   20 1
    28   19   21 1
    29   19   39 1
    30   20   40 1
    31   21   22 1
    32   21   41 1
    33   22   23 ar
    34   22   31 ar
    35   23   24 ar
    36   23   42 1
    37   24   25 ar
    38   24   46 1
    39   25   26 ar
    40   25   31 ar
    41   26   27 2
    42   26   28 ar
    43   27   43 1
    44   28   29 ar
    45   28   45 1
    46   29   30 ar
    47   29   44 1
    48   30   31 ar
@<TRIPOS>SUBSTRUCTURE
     1 ATP         1 GROUP 0 A     ****
@<TRIPOS>MOLECULE
[[[3,4-dihydroxy-5-(6-imino-7,8-dihydro-1~{H}-purin-8-ylium-9-yl)tetrahydrofuran-2-yl]methoxy-oxido-phosphoryl]oxy-hydroxy-phosphoryl] hydrogen phosphate
   46    48     1     0     0
SMALL
USER_CHARGES

@<TRIPOS>ATOM
      1 PG          3.9354   -3.8940   -7.7951 P.3       1 ATP         1.5595
      2 O1G         5.2454   -3.4763   -8.4252 O.co2     1 ATP        -0.8438
      3 O2G         2.6480   -3.8660   -8.5882 O.co2     1 ATP        -0.8438
      4 O3G         4.1193   -5.3860   -7.1578 O.3       1 ATP        -0.7800
      5 PB          3.4742   -1.4806   -6.1639 P.3       1 ATP         1.9223
      6 O1B         4.5598   -0.5743   -6.6642 O.2       1 ATP        -0.8953
      7 O2B         2.0137   -1.2202   -6.8063 O.3       1 ATP        -0.8165
      8 O3B         3.7253   -3.0583   -6.4103 O.3       1 ATP        -0.8247
      9 PA          2.1371   -2.2715   -3.6563 P.3       1 ATP         1.6157
     10 O1A         2.4857   -3.7434   -3.7019 O.co2     1 ATP        -0.8629
     11 O2A         0.7457   -1.7949   -4.0121 O.co2     1 ATP        -0.8629
     12 O3A         3.2103   -1.4478   -4.5705 O.3       1 ATP        -0.8191
     13 O5'         2.5245   -1.6648   -2.1878 O.3       1 ATP        -0.5644
     14 C5'         2.2816   -0.2918   -1.9206 C.3       1 ATP         0.2062
     15 C4'         2.7248    0.0226   -0.4980 C.3       1 ATP         0.0971
     16 O4'         2.4697    1.4219   -0.2462 O.3       1 ATP        -0.3662
     17 C3'         1.9404   -0.7419    0.5596 C.3       1 ATP         0.0734
     18 O3'         2.7418   -0.8086    1.7389 O.3       1 ATP        -0.5671
     19 C2'         0.7477    0.1630    0.7858 C.3       1 ATP         0.0745
     20 O2'         0.1373   -0.0577    2.0407 O.3       1 ATP        -0.5794
     21 C1'         1.3733    1.5427    0.6747 C.3       1 ATP         0.3824
     22 N9          0.4520    2.5240    0.1767 N.pl3     1 ATP        -0.4324
     23 C8          0.2216    2.8192   -1.0985 C.ar      1 ATP         0.2662
     24 N7         -0.6906    3.7763   -1.2384 N.pl3     1 ATP        -0.4772
     25 C5         -1.0575    4.1037    0.0366 C.ar      1 ATP        -0.1305
     26 C6         -2.0291    5.0943    0.5330 C.ar      1 ATP         0.7186
     27 N6         -2.7093    5.8371   -0.2800 N.2       1 ATP        -0.8115
     28 N1         -2.1051    5.1136    1.9204 N.pl3     1 ATP        -0.8400
     29 C2         -1.3354    4.2774    2.7129 C.ar      1 ATP         0.6671
     30 N3         -0.4707    3.3945    2.2944 N.2       1 ATP        -0.5806
     31 C4         -0.3734    3.3525    0.9220 C.ar      1 ATP         0.2748
     32 HOG3        3.3514   -5.7999   -6.7093 H         1 ATP         0.4327
     33 HOB2        1.5935   -0.3416   -6.6890 H         1 ATP         0.4701
     34 H5'1        2.8432    0.3119   -2.6398 H         1 ATP         0.0401
     35 H5'2        1.2128   -0.0927   -2.0428 H         1 ATP         0.0401
     36 H4'         3.8044   -0.1397   -0.4040 H         1 ATP         0.1136
     37 H3'         1.6764   -1.7639    0.2728 H         1 ATP         0.0693
     38 HO3'        2.2232   -1.2979    2.3953 H         1 ATP         0.4124
     39 H2'        -0.0011    0.0027    0.0003 H         1 ATP         0.0854
     40 HO2'       -0.6141    0.5574    2.1082 H         1 ATP         0.4367
     41 H1'         1.7826    1.9024    1.6451 H         1 ATP         0.1343
     42 H8          0.7125    2.3429   -1.9292 H         1 ATP         0.3302
     43 HN62       -3.3217    6.4517    0.2629 H         1 ATP         0.4160
     44 H2         -1.5188    4.4223    3.7890 H         1 ATP         0.0756
     45 H45        -2.7470    5.7627    2.3665 H         1 ATP         0.4587
     46 H46        -1.0305    4.1680   -2.1054 H         1 ATP         0.5254
@<TRIPOS>BOND
     1    1    2 2
     2    1    3 1
     3    1    4 1
     4    1    8 1
     5    4   32 1
     6    5    6 2
     7    5    7 1
     8    5    8 1
     9    5   12 1
    10    7   33 1
    11    9   10 2
    12    9   11 1
    13    9   12 1
    14    9   13 1
    15   13   14 1
    16   14   15 1
    17   14   34 1
    18   14   35 1
    19   15   16 1
    20   15   17 1
    21   15   36 1
    22   16   21 1
    23   17   18 1
    24   17   19 1
    25   17   37 1
    26   18   38 1
    27   19   20 1
    28   19   21 1
    29   19   39 1
    30   20   40 1
    31   21   22 1
    32   21   41 1
    33   22   23 ar
    34   22   31 ar
    35   23   24 ar
    36   23   42 1
    37   24   25 ar
    38   24   46 1
    39   25   26 ar
    40   25   31 ar
    41   26   27 2
    42   26   28 ar
    43   27   43 1
    44   28   29 ar
    45   28   45 1
    46   29   30 ar
    47   29   44 1
    48   30   31 ar
@<TRIPOS>SUBSTRUCTURE
     1 ATP         1 GROUP 0 A     ****
@<TRIPOS>MOLECULE
[[[3,4-dihydroxy-5-(6-imino-7,8-dihydro-1~{H}-purin-8-ylium-9-yl)tetrahydrofuran-2-yl]methoxy-oxido-phosphoryl]oxy-hydroxy-phosphoryl] hydrogen phosphate
   46    48     1     0     0
SMALL
USER_CHARGES

@<TRIPOS>ATOM
      1 PG          4.3156   -4.3180   -4.5017 P.3       1 ATP         1.5595
      2 O1G         5.5221   -4.1979   -5.4059 O.co2     1 ATP        -0.8438
      3 O2G         3.9078   -5.6548   -3.9238 O.co2     1 ATP        -0.8438
      4 O3G         4.4782   -3.2513   -3.2761 O.3       1 ATP        -0.7800
      5 PB          2.8428   -2.1789   -5.8992 P.3       1 ATP         1.9223
      6 O1B         3.7873   -1.8527   -7.0180 O.2       1 ATP        -0.8953
      7 O2B         1.2748   -2.1302   -6.2898 O.3       1 ATP        -0.8165
      8 O3B         3.0292   -3.6453   -5.2452 O.3       1 ATP        -0.8247
      9 PA          2.7406    0.3767   -4.4296 P.3       1 ATP         1.6157
     10 O1A         1.2942    0.7140   -4.7197 O.co2     1 ATP        -0.8629
     11 O2A         3.8609    1.0770   -5.1673 O.co2     1 ATP        -0.8629
     12 O3A         2.9483   -1.2346   -4.5928 O.3       1 ATP        -0.8191
     13 O5'         3.0213    0.5153   -2.8245 O.3       1 ATP        -0.5644
     14 C5'         2.2816   -0.2918   -1.9206 C.3       1 ATP         0.2062
     15 C4'         2.7248    0.0226   -0.4980 C.3       1 ATP         0.0971
     16 O4'         2.4697    1.4219   -0.2462 O.3       1 ATP        -0.3662
     17 C3'         1.9404   -0.7419    0.5596 C.3       1 ATP         0.0734
     18 O3'         2.7418   -0.8086    1.7389 O.3       1 ATP        -0.5671
     19 C2'         0.7477    0.1630    0.7858 C.3       1 ATP         0.0745
     20 O2'         0.1373   -0.0577    2.0407 O.3       1 ATP        -0.5794
     21 C1'         1.3733    1.5427    0.6747 C.3       1 ATP         0.3824
     22 N9          0.4520    2.5240    0.1767 N.pl3     1 ATP        -0.4324
     23 C8          0.2216    2.8192   -1.0985 C.ar      1 ATP         0.2662
     24 N7         -0.6906    3.7763   -1.2384 N.pl3     1 ATP        -0.4772
     25 C5         -1.0575    4.1037    0.0366 C.ar      1 ATP        -0.1305
     26 C6         -2.0291    5.0943    0.5330 C.ar      1 ATP         0.7186
     27 N6         -2.7093    5.8371   -0.2800 N.2       1 ATP        -0.8115
     28 N1         -2.1051    5.1136    1.9204 N.pl3     1 ATP        -0.8400
     29 C2         -1.3354    4.2774    2.7129 C.ar      1 ATP         0.6671
     30 N3         -0.4707    3.3945    2.2944 N.2       1 ATP        -0.5806
     31 C4         -0.3734    3.3525    0.9220 C.ar      1 ATP         0.2748
     32 HOG3        3.7702   -3.2073   -2.5986 H         1 ATP         0.4327
     33 HOB2        0.9428   -2.7255   -6.9953 H         1 ATP         0.4701
     34 H5'1        1.2163   -0.0770   -2.0471 H         1 ATP         0.0401
     35 H5'2        2.4655   -1.3443   -2.1563 H         1 ATP         0.0401
     36 H4'         3.8044   -0.1397   -0.4040 H         1 ATP         0.1136
     37 H3'         1.6764   -1.7639    0.2728 H         1 ATP         0.0693
     38 HO3'        3.5554   -1.2733    1.4914 H         1 ATP         0.4124
     39 H2'        -0.0011    0.0027    0.0003 H         1 ATP         0.0854
     40 HO2'       -0.1563   -0.9855    2.0596 H         1 ATP         0.4367
     41 H1'         1.7826    1.9024    1.6451 H         1 ATP         0.1343
     42 H8          0.7125    2.3429   -1.9292 H         1 ATP         0.3302
     43 HN62       -3.3217    6.4517    0.2629 H         1 ATP         0.4160
     44 H2         -1.5188    4.4223    3.7890 H         1 ATP         0.0756
     45 H45        -2.7470    5.7627    2.3665 H         1 ATP         0.4587
     46 H46        -1.0305    4.1680   -2.1054 H         1 ATP         0.5254
@<TRIPOS>BOND
     1    1    2 2
     2    1    3 1
     3    1    4 1
     4    1    8 1
     5    4   32 1
     6    5    6 2
     7    5    7 1
     8    5    8 1
     9    5   12 1
    10    7   33 1
    11    9   10 2
    12    9   11 1
    13    9   12 1
    14    9   13 1
    15   13   14 1
    16   14   15 1
    17   14   34 1
    18   14   35 1
    19   15   16 1
    20   15   17 1
    21   15   36 1
    22   16   21 1
    23   17   18 1
    24   17   19 1
    25   17   37 1
    26   18   38 1
    27   19   20 1
    28   19   21 1
    29   19   39 1
    30   20   40 1
    31   21   22 1
    32   21   41 1
    33   22   23 ar
    34   22   31 ar
    35   23   24 ar
    36   23   42 1
    37   24   25 ar
    38   24   46 1
    39   25   26 ar
    40   25   31 ar
    41   26   27 2
    42   26   28 ar
    43   27   43 1
    44   28   29 ar
    45   28   45 1
    46   29   30 ar
    47   29   44 1
    48   30   31 ar
@<TRIPOS>SUBSTRUCTURE
     1 ATP         1 GROUP 0 A     ****
@<TRIPOS>MOLECULE
[[[3,4-dihydroxy-5-(6-imino-7,8-dihydro-1~{H}-purin-8-ylium-9-yl)tetrahydrofuran-2-yl]methoxy-oxido-phosphoryl]oxy-hydroxy-phosphoryl] hydrogen phosphate
   46    48     1     0     0
SMALL
USER_CHARGES

@<TRIPOS>ATOM
      1 PG          5.7924   -3.5029   -4.8304 P.3       1 ATP         1.5595
      2 O1G         6.0092   -4.9882   -4.6441 O.co2     1 ATP        -0.8438
      3 O2G         5.9667   -2.5415   -3.6759 O.co2     1 ATP        -0.8438
      4 O3G         6.7225   -2.9952   -6.0727 O.3       1 ATP        -0.7800
      5 PB          3.6349   -1.9126   -6.0608 P.3       1 ATP         1.9223
      6 O1B         4.3711   -1.2279   -7.1741 O.2       1 ATP        -0.8953
      7 O2B         2.1271   -2.3735   -6.4179 O.3       1 ATP        -0.8165
      8 O3B         4.3270   -3.2636   -5.5052 O.3       1 ATP        -0.8247
      9 PA          2.7406    0.3767   -4.4296 P.3       1 ATP         1.6157
     10 O1A         1.2546    0.2225   -4.6703 O.co2     1 ATP        -0.8629
     11 O2A         3.5320    1.4518   -5.1421 O.co2     1 ATP        -0.8629
     12 O3A         3.4692   -1.0595   -4.6990 O.3       1 ATP        -0.8191
     13 O5'         3.0213    0.5153   -2.8245 O.3       1 ATP        -0.5644
     14 C5'         2.2816   -0.2918   -1.9206 C.3       1 ATP         0.2062
     15 C4'         2.7248    0.0226   -0.4980 C.3       1 ATP         0.0971
     16 O4'         2.4697    1.4219   -0.2462 O.3       1 ATP        -0.3662
     17 C3'         1.9404   -0.7419    0.5596 C.3       1 ATP         0.0734
     18 O3'         2.7418   -0.8086    1.7389 O.3       1 ATP        -0.5671
     19 C2'         0.7477    0.1630    0.7858 C.3       1 ATP         0.0745
     20 O2'         0.1373   -0.0577    2.0407 O.3       1 ATP        -0.5794
     21 C1'         1.3733    1.5427    0.6747 C.3       1 ATP         0.3824
     22 N9          0.4520    2.5240    0.1767 N.pl3     1 ATP        -0.4324
     23 C8         -0.2004    2.4829   -0.9804 C.ar      1 ATP         0.2662
     24 N7         -0.9830    3.5431   -1.1568 N.pl3     1 ATP        -0.4772
     25 C5         -0.8095    4.3012   -0.0331 C.ar      1 ATP        -0.1305
     26 C6         -1.4065    5.5904    0.3585 C.ar      1 ATP         0.7186
     27 N6         -2.2501    6.2030   -0.4084 N.2       1 ATP        -0.8115
     28 N1         -0.9585    6.0272    1.5994 N.pl3     1 ATP        -0.8400
     29 C2         -0.0508    5.3009    2.3532 C.ar      1 ATP         0.6671
     30 N3          0.4890    4.1592    2.0257 N.2       1 ATP        -0.5806
     31 C4          0.0637    3.7006    0.7995 C.ar      1 ATP         0.2748
     32 HOG3        6.6934   -2.0465   -6.3202 H         1 ATP         0.4327
     33 HOB2        1.4732   -1.6925   -6.6843 H         1 ATP         0.4701
     34 H5'1        1.2163   -0.0770   -2.0471 H         1 ATP         0.0401
     35 H5'2        2.4655   -1.3443   -2.1563 H         1 ATP         0.0401
     36 H4'         3.8044   -0.1397   -0.4040 H         1 ATP         0.1136
     37 H3'         1.6764   -1.7639    0.2728 H         1 ATP         0.0693
     38 HO3'        2.2232   -1.2979    2.3953 H         1 ATP         0.4124
     39 H2'        -0.0011    0.0027    0.0003 H         1 ATP         0.0854
     40 HO2'       -0.1563   -0.9855    2.0596 H         1 ATP         0.4367
     41 H1'         1.7826    1.9024    1.6451 H         1 ATP         0.1343
     42 H8         -0.1116    1.6863   -1.6984 H         1 ATP         0.3302
     43 HN62       -2.5420    7.0730    0.0447 H         1 ATP         0.4160
     44 H2          0.1969    5.7893    3.3086 H         1 ATP         0.0756
     45 H45        -1.3097    6.9080    1.9642 H         1 ATP         0.4587
     46 H46        -1.5735    3.7351   -1.9538 H         1 ATP         0.5254
@<TRIPOS>BOND
     1    1    2 2
     2    1    3 1
     3    1    4 1
     4    1    8 1
     5    4   32 1
     6    5    6 2
     7    5    7 1
     8    5    8 1
     9    5   12 1
    10    7   33 1
    11    9   10 2
    12    9   11 1
    13    9   12 1
    14    9   13 1
    15   13   14 1
    16   14   15 1
    17   14   34 1
    18   14   35 1
    19   15   16 1
    20   15   17 1
    21   15   36 1
    22   16   21 1
    23   17   18 1
    24   17   19 1
    25   17   37 1
    26   18   38 1
    27   19   20 1
    28   19   21 1
    29   19   39 1
    30   20   40 1
    31   21   22 1
    32   21   41 1
    33   22   23 ar
    34   22   31 ar
    35   23   24 ar
    36   23   42 1
    37   24   25 ar
    38   24   46 1
    39   25   26 ar
    40   25   31 ar
    41   26   27 2
    42   26   28 ar
    43   27   43 1
    44   28   29 ar
    45   28   45 1
    46   29   30 ar
    47   29   44 1
    48   30   31 ar
@<TRIPOS>SUBSTRUCTURE
     1 ATP         1 GROUP 0 A     ****
@<TRIPOS>MOLECULE
[[[3,4-dihydroxy-5-(6-imino-7,8-dihydro-1~{H}-purin-8-ylium-9-yl)tetrahydrofuran-2-yl]methoxy-oxido-phosphoryl]oxy-hydroxy-phosphoryl] hydrogen phosphate
   46    48     1     0     0
SMALL
USER_CHARGES

@<TRIPOS>ATOM
      1 PG          4.6229    1.2619   -5.7386 P.3       1 ATP         1.5595
      2 O1G         5.1768    2.0628   -4.5813 O.co2     1 ATP        -0.8438
      3 O2G         3.1402    1.2509   -6.0367 O.co2     1 ATP        -0.8438
      4 O3G         5.4214    1.6927   -7.0962 O.3       1 ATP        -0.7800
      5 PB          4.8246   -1.4165   -4.5208 P.3       1 ATP         1.9223
      6 O1B         5.5098   -2.7326   -4.7418 O.2       1 ATP        -0.8953
      7 O2B         5.1574   -0.6988   -3.1110 O.3       1 ATP        -0.8165
      8 O3B         5.1527   -0.2759   -5.6182 O.3       1 ATP        -0.8247
      9 PA          2.1371   -2.2715   -3.6563 P.3       1 ATP         1.6157
     10 O1A         2.4857   -3.7434   -3.7019 O.co2     1 ATP        -0.8629
     11 O2A         0.7457   -1.7949   -4.0121 O.co2     1 ATP        -0.8629
     12 O3A         3.2103   -1.4478   -4.5705 O.3       1 ATP        -0.8191
     13 O5'         2.5245   -1.6648   -2.1878 O.3       1 ATP        -0.5644
     14 C5'         2.2816   -0.2918   -1.9206 C.3       1 ATP         0.2062
     15 C4'         2.7248    0.0226   -0.4980 C.3       1 ATP         0.0971
     16 O4'         2.4697    1.4219   -0.2462 O.3       1 ATP        -0.3662
     17 C3'         1.9404   -0.7419    0.5596 C.3       1 ATP         0.0734
     18 O3'         2.7418   -0.8086    1.7389 O.3       1 ATP        -0.5671
     19 C2'         0.7477    0.1630    0.7858 C.3       1 ATP         0.0745
     20 O2'         0.1373   -0.0577    2.0407 O.3       1 ATP        -0.5794
     21 C1'         1.3733    1.5427    0.6747 C.3       1 ATP         0.3824
     22 N9          0.4520    2.5240    0.1767 N.pl3     1 ATP        -0.4324
     23 C8          0.2216    2.8192   -1.0985 C.ar      1 ATP         0.2662
     24 N7         -0.6906    3.7763   -1.2384 N.pl3     1 ATP        -0.4772
     25 C5         -1.0575    4.1037    0.0366 C.ar      1 ATP        -0.1305
     26 C6         -2.0291    5.0943    0.5330 C.ar      1 ATP         0.7186
     27 N6         -2.7093    5.8371   -0.2800 N.2       1 ATP        -0.8115
     28 N1         -2.1051    5.1136    1.9204 N.pl3     1 ATP        -0.8400
     29 C2         -1.3354    4.2774    2.7129 C.ar      1 ATP         0.6671
     30 N3         -0.4707    3.3945    2.2944 N.2       1 ATP        -0.5806
     31 C4         -0.3734    3.3525    0.9220 C.ar      1 ATP         0.2748
     32 HOG3        5.1752    1.2579   -7.9403 H         1 ATP         0.4327
     33 HOB2        4.9385   -1.1666   -2.2770 H         1 ATP         0.4701
     34 H5'1        2.8432    0.3119   -2.6398 H         1 ATP         0.0401
     35 H5'2        1.2128   -0.0927   -2.0428 H         1 ATP         0.0401
     36 H4'         3.8044   -0.1397   -0.4040 H         1 ATP         0.1136
     37 H3'         1.6764   -1.7639    0.2728 H         1 ATP         0.0693
     38 HO3'        2.2232   -1.2979    2.3953 H         1 ATP         0.4124
     39 H2'        -0.0011    0.0027    0.0003 H         1 ATP         0.0854
     40 HO2'       -0.6141    0.5574    2.1082 H         1 ATP         0.4367
     41 H1'         1.7826    1.9024    1.6451 H         1 ATP         0.1343
     42 H8          0.7125    2.3429   -1.9292 H         1 ATP         0.3302
     43 HN62       -3.3217    6.4517    0.2629 H         1 ATP         0.4160
     44 H2         -1.5188    4.4223    3.7890 H         1 ATP         0.0756
     45 H45        -2.7470    5.7627    2.3665 H         1 ATP         0.4587
     46 H46        -1.0305    4.1680   -2.1054 H         1 ATP         0.5254
@<TRIPOS>BOND
     1    1    2 2
     2    1    3 1
     3    1    4 1
     4    1    8 1
     5    4   32 1
     6    5    6 2
     7    5    7 1
     8    5    8 1
     9    5   12 1
    10    7   33 1
    11    9   10 2
    12    9   11 1
    13    9   12 1
    14    9   13 1
    15   13   14 1
    16   14   15 1
    17   14   34 1
    18   14   35 1
    19   15   16 1
    20   15   17 1
    21   15   36 1
    22   16   21 1
    23   17   18 1
    24   17   19 1
    25   17   37 1
    26   18   38 1
    27   19   20 1
    28   19   21 1
    29   19   39 1
    30   20   40 1
    31   21   22 1
    32   21   41 1
    33   22   23 ar
    34   22   31 ar
    35   23   24 ar
    36   23   42 1
    37   24   25 ar
    38   24   46 1
    39   25   26 ar
    40   25   31 ar
    41   26   27 2
    42   26   28 ar
    43   27   43 1
    44   28   29 ar
    45   28   45 1
    46   29   30 ar
    47   29   44 1
    48   30   31 ar
@<TRIPOS>SUBSTRUCTURE
     1 ATP         1 GROUP 0 A     ****
@<TRIPOS>MOLECULE
[[[3,4-dihydroxy-5-(6-imino-7,8-dihydro-1~{H}-purin-8-ylium-9-yl)tetrahydrofuran-2-yl]methoxy-oxido-phosphoryl]oxy-hydroxy-phosphoryl] hydrogen phosphate
   46    48     1     0     0
SMALL
USER_CHARGES

@<TRIPOS>ATOM
      1 PG         -1.0653   -2.3079   -4.6070 P.3       1 ATP         1.5595
      2 O1G        -2.5523   -2.1912   -4.8584 O.co2     1 ATP        -0.8438
      3 O2G        -0.4803   -1.9956   -3.2478 O.co2     1 ATP        -0.8438
      4 O3G        -0.5808   -3.8033   -5.0488 O.3       1 ATP        -0.7800
      5 PB          1.3127   -1.3309   -6.0520 P.3       1 ATP         1.9223
      6 O1B         1.9887   -2.6203   -6.4136 O.2       1 ATP        -0.8953
      7 O2B         1.3979   -0.1733   -7.1774 O.3       1 ATP        -0.8165
      8 O3B        -0.2690   -1.4458   -5.7397 O.3       1 ATP        -0.8247
      9 PA          3.3342   -0.0516   -4.3262 P.3       1 ATP         1.6157
     10 O1A         3.6725    1.1050   -5.2416 O.co2     1 ATP        -0.8629
     11 O2A         4.2676   -1.2358   -4.1991 O.co2     1 ATP        -0.8629
     12 O3A         1.8482   -0.6092   -4.7096 O.3       1 ATP        -0.8191
     13 O5'         3.0213    0.5153   -2.8245 O.3       1 ATP        -0.5644
     14 C5'         2.2816   -0.2918   -1.9206 C.3       1 ATP         0.2062
     15 C4'         2.7248    0.0226   -0.4980 C.3       1 ATP         0.0971
     16 O4'         2.4697    1.4219   -0.2462 O.3       1 ATP        -0.3662
     17 C3'         1.9404   -0.7419    0.5596 C.3       1 ATP         0.0734
     18 O3'         2.7418   -0.8086    1.7389 O.3       1 ATP        -0.5671
     19 C2'         0.7477    0.1630    0.7858 C.3       1 ATP         0.0745
     20 O2'         0.1373   -0.0577    2.0407 O.3       1 ATP        -0.5794
     21 C1'         1.3733    1.5427    0.6747 C.3       1 ATP         0.3824
     22 N9          0.4520    2.5240    0.1767 N.pl3     1 ATP        -0.4324
     23 C8          0.2216    2.8192   -1.0985 C.ar      1 ATP         0.2662
     24 N7         -0.6906    3.7763   -1.2384 N.pl3     1 ATP        -0.4772
     25 C5         -1.0575    4.1037    0.0366 C.ar      1 ATP        -0.1305
     26 C6         -2.0291    5.0943    0.5330 C.ar      1 ATP         0.7186
     27 N6         -2.7093    5.8371   -0.2800 N.2       1 ATP        -0.8115
     28 N1         -2.1051    5.1136    1.9204 N.pl3     1 ATP        -0.8400
     29 C2         -1.3354    4.2774    2.7129 C.ar      1 ATP         0.6671
     30 N3         -0.4707    3.3945    2.2944 N.2       1 ATP        -0.5806
     31 C4         -0.3734    3.3525    0.9220 C.ar      1 ATP         0.2748
     32 HOG3        0.3664   -4.0365   -4.9458 H         1 ATP         0.4327
     33 HOB2        2.2799    0.1500   -7.4598 H         1 ATP         0.4701
     34 H5'1        1.2163   -0.0770   -2.0471 H         1 ATP         0.0401
     35 H5'2        2.4655   -1.3443   -2.1563 H         1 ATP         0.0401
     36 H4'         3.8044   -0.1397   -0.4040 H         1 ATP         0.1136
     37 H3'         1.6764   -1.7639    0.2728 H         1 ATP         0.0693
     38 HO3'        2.2232   -1.2979    2.3953 H         1 ATP         0.4124
     39 H2'        -0.0011    0.0027    0.0003 H         1 ATP         0.0854
     40 HO2'       -0.6141    0.5574    2.1082 H         1 ATP         0.4367
     41 H1'         1.7826    1.9024    1.6451 H         1 ATP         0.1343
     42 H8          0.7125    2.3429   -1.9292 H         1 ATP         0.3302
     43 HN62       -3.3217    6.4517    0.2629 H         1 ATP         0.4160
     44 H2         -1.5188    4.4223    3.7890 H         1 ATP         0.0756
     45 H45        -2.7470    5.7627    2.3665 H         1 ATP         0.4587
     46 H46        -1.0305    4.1680   -2.1054 H         1 ATP         0.5254
@<TRIPOS>BOND
     1    1    2 2
     2    1    3 1
     3    1    4 1
     4    1    8 1
     5    4   32 1
     6    5    6 2
     7    5    7 1
     8    5    8 1
     9    5   12 1
    10    7   33 1
    11    9   10 2
    12    9   11 1
    13    9   12 1
    14    9   13 1
    15   13   14 1
    16   14   15 1
    17   14   34 1
    18   14   35 1
    19   15   16 1
    20   15   17 1
    21   15   36 1
    22   16   21 1
    23   17   18 1
    24   17   19 1
    25   17   37 1
    26   18   38 1
    27   19   20 1
    28   19   21 1
    29   19   39 1
    30   20   40 1
    31   21   22 1
    32   21   41 1
    33   22   23 ar
    34   22   31 ar
    35   23   24 ar
    36   23   42 1
    37   24   25 ar
    38   24   46 1
    39   25   26 ar
    40   25   31 ar
    41   26   27 2
    42   26   28 ar
    43   27   43 1
    44   28   29 ar
    45   28   45 1
    46   29   30 ar
    47   29   44 1
    48   30   31 ar
@<TRIPOS>SUBSTRUCTURE
     1 ATP         1 GROUP 0 A     ****
@<TRIPOS>MOLECULE
[[[3,4-dihydroxy-5-(6-imino-7,8-dihydro-1~{H}-purin-8-ylium-9-yl)tetrahydrofuran-2-yl]methoxy-oxido-phosphoryl]oxy-hydroxy-phosphoryl] hydrogen phosphate
   46    48     1     0     0
SMALL
USER_CHARGES

@<TRIPOS>ATOM
      1 PG          6.1964   -4.0658   -5.3563 P.3       1 ATP         1.5595
      2 O1G         7.2812   -3.3837   -6.1598 O.co2     1 ATP        -0.8438
      3 O2G         5.6124   -5.3872   -5.8040 O.co2     1 ATP        -0.8438
      4 O3G         6.7139   -4.2231   -3.8157 O.3       1 ATP        -0.7800
      5 PB          5.0039   -1.5143   -4.4813 P.3       1 ATP         1.9223
      6 O1B         5.5215   -1.4129   -3.0770 O.2       1 ATP        -0.8953
      7 O2B         5.8244   -0.6552   -5.5778 O.3       1 ATP        -0.8165
      8 O3B         4.9825   -3.0067   -5.1019 O.3       1 ATP        -0.8247
      9 PA          2.7406    0.3767   -4.4296 P.3       1 ATP         1.6157
     10 O1A         1.2546    0.2225   -4.6703 O.co2     1 ATP        -0.8629
     11 O2A         3.5320    1.4518   -5.1421 O.co2     1 ATP        -0.8629
     12 O3A         3.4692   -1.0595   -4.6990 O.3       1 ATP        -0.8191
     13 O5'         3.0213    0.5153   -2.8245 O.3       1 ATP        -0.5644
     14 C5'         2.2816   -0.2918   -1.9206 C.3       1 ATP         0.2062
     15 C4'         2.7248    0.0226   -0.4980 C.3       1 ATP         0.0971
     16 O4'         2.4697    1.4219   -0.2462 O.3       1 ATP        -0.3662
     17 C3'         1.9404   -0.7419    0.5596 C.3       1 ATP         0.0734
     18 O3'         2.7418   -0.8086    1.7389 O.3       1 ATP        -0.5671
     19 C2'         0.7477    0.1630    0.7858 C.3       1 ATP         0.0745
     20 O2'         0.1373   -0.0577    2.0407 O.3       1 ATP        -0.5794
     21 C1'         1.3733    1.5427    0.6747 C.3       1 ATP         0.3824
     22 N9          0.4520    2.5240    0.1767 N.pl3     1 ATP        -0.4324
     23 C8          0.2216    2.8192   -1.0985 C.ar      1 ATP         0.2662
     24 N7         -0.6906    3.7763   -1.2384 N.pl3     1 ATP        -0.4772
     25 C5         -1.0575    4.1037    0.0366 C.ar      1 ATP        -0.1305
     26 C6         -2.0291    5.0943    0.5330 C.ar      1 ATP         0.7186
     27 N6         -2.7093    5.8371   -0.2800 N.2       1 ATP        -0.8115
     28 N1         -2.1051    5.1136    1.9204 N.pl3     1 ATP        -0.8400
     29 C2         -1.3354    4.2774    2.7129 C.ar      1 ATP         0.6671
     30 N3         -0.4707    3.3945    2.2944 N.2       1 ATP        -0.5806
     31 C4         -0.3734    3.3525    0.9220 C.ar      1 ATP         0.2748
     32 HOG3        6.9390   -3.4110   -3.3137 H         1 ATP         0.4327
     33 HOB2        5.8847    0.3179   -5.4699 H         1 ATP         0.4701
     34 H5'1        1.2163   -0.0770   -2.0471 H         1 ATP         0.0401
     35 H5'2        2.4655   -1.3443   -2.1563 H         1 ATP         0.0401
     36 H4'         3.8044   -0.1397   -0.4040 H         1 ATP         0.1136
     37 H3'         1.6764   -1.7639    0.2728 H         1 ATP         0.0693
     38 HO3'        2.2232   -1.2979    2.3953 H         1 ATP         0.4124
     39 H2'        -0.0011    0.0027    0.0003 H         1 ATP         0.0854
     40 HO2'       -0.6141    0.5574    2.1082 H         1 ATP         0.4367
     41 H1'         1.7826    1.9024    1.6451 H         1 ATP         0.1343
     42 H8          0.7125    2.3429   -1.9292 H         1 ATP         0.3302
     43 HN62       -3.3217    6.4517    0.2629 H         1 ATP         0.4160
     44 H2         -1.5188    4.4223    3.7890 H         1 ATP         0.0756
     45 H45        -2.7470    5.7627    2.3665 H         1 ATP         0.4587
     46 H46        -1.0305    4.1680   -2.1054 H         1 ATP         0.5254
@<TRIPOS>BOND
     1    1    2 2
     2    1    3 1
     3    1    4 1
     4    1    8 1
     5    4   32 1
     6    5    6 2
     7    5    7 1
     8    5    8 1
     9    5   12 1
    10    7   33 1
    11    9   10 2
    12    9   11 1
    13    9   12 1
    14    9   13 1
    15   13   14 1
    16   14   15 1
    17   14   34 1
    18   14   35 1
    19   15   16 1
    20   15   17 1
    21   15   36 1
    22   16   21 1
    23   17   18 1
    24   17   19 1
    25   17   37 1
    26   18   38 1
    27   19   20 1
    28   19   21 1
    29   19   39 1
    30   20   40 1
    31   21   22 1
    32   21   41 1
    33   22   23 ar
    34   22   31 ar
    35   23   24 ar
    36   23   42 1
    37   24   25 ar
    38   24   46 1
    39   25   26 ar
    40   25   31 ar
    41   26   27 2
    42   26   28 ar
    43   27   43 1
    44   28   29 ar
    45   28   45 1
    46   29   30 ar
    47   29   44 1
    48   30   31 ar
@<TRIPOS>SUBSTRUCTURE
     1 ATP         1 GROUP 0 A     ****
@<TRIPOS>MOLECULE
[[[3,4-dihydroxy-5-(6-imino-7,8-dihydro-1~{H}-purin-8-ylium-9-yl)tetrahydrofuran-2-yl]methoxy-oxido-phosphoryl]oxy-hydroxy-phosphoryl] hydrogen phosphate
   46    48     1     0     0
SMALL
USER_CHARGES

@<TRIPOS>ATOM
      1 PG          5.7011   -0.1636   -7.5795 P.3       1 ATP         1.5595
      2 O1G         6.1742   -1.4520   -8.2149 O.co2     1 ATP        -0.8438
      3 O2G         6.6841    0.9187   -7.1925 O.co2     1 ATP        -0.8438
      4 O3G         4.5545    0.4959   -8.5369 O.3       1 ATP        -0.7800
      5 PB          3.4742   -1.4806   -6.1639 P.3       1 ATP         1.9223
      6 O1B         2.3082   -1.0971   -7.0263 O.2       1 ATP        -0.8953
      7 O2B         4.0662   -2.9612   -6.4305 O.3       1 ATP        -0.8165
      8 O3B         4.7694   -0.5218   -6.2897 O.3       1 ATP        -0.8247
      9 PA          2.1371   -2.2715   -3.6563 P.3       1 ATP         1.6157
     10 O1A         2.4857   -3.7434   -3.7019 O.co2     1 ATP        -0.8629
     11 O2A         0.7457   -1.7949   -4.0121 O.co2     1 ATP        -0.8629
     12 O3A         3.2103   -1.4478   -4.5705 O.3       1 ATP        -0.8191
     13 O5'         2.5245   -1.6648   -2.1878 O.3       1 ATP        -0.5644
     14 C5'         2.2816   -0.2918   -1.9206 C.3       1 ATP         0.2062
     15 C4'         2.7248    0.0226   -0.4980 C.3       1 ATP         0.0971
     16 O4'         2.4697    1.4219   -0.2462 O.3       1 ATP        -0.3662
     17 C3'         1.9404   -0.7419    0.5596 C.3       1 ATP         0.0734
     18 O3'         2.7418   -0.8086    1.7389 O.3       1 ATP        -0.5671
     19 C2'         0.7477    0.1630    0.7858 C.3       1 ATP         0.0745
     20 O2'         0.1373   -0.0577    2.0407 O.3       1 ATP        -0.5794
     21 C1'         1.3733    1.5427    0.6747 C.3       1 ATP         0.3824
     22 N9          0.4520    2.5240    0.1767 N.pl3     1 ATP        -0.4324
     23 C8          0.2216    2.8192   -1.0985 C.ar      1 ATP         0.2662
     24 N7         -0.6906    3.7763   -1.2384 N.pl3     1 ATP        -0.4772
     25 C5         -1.0575    4.1037    0.0366 C.ar      1 ATP        -0.1305
     26 C6         -2.0291    5.0943    0.5330 C.ar      1 ATP         0.7186
     27 N6         -2.7093    5.8371   -0.2800 N.2       1 ATP        -0.8115
     28 N1         -2.1051    5.1136    1.9204 N.pl3     1 ATP        -0.8400
     29 C2         -1.3354    4.2774    2.7129 C.ar      1 ATP         0.6671
     30 N3         -0.4707    3.3945    2.2944 N.2       1 ATP        -0.5806
     31 C4         -0.3734    3.3525    0.9220 C.ar      1 ATP         0.2748
     32 HOG3        4.1449    1.3428   -8.2591 H         1 ATP         0.4327
     33 HOB2        3.4782   -3.7366   -6.3069 H         1 ATP         0.4701
     34 H5'1        2.8432    0.3119   -2.6398 H         1 ATP         0.0401
     35 H5'2        1.2128   -0.0927   -2.0428 H         1 ATP         0.0401
     36 H4'         3.8044   -0.1397   -0.4040 H         1 ATP         0.1136
     37 H3'         1.6764   -1.7639    0.2728 H         1 ATP         0.0693
     38 HO3'        2.2232   -1.2979    2.3953 H         1 ATP         0.4124
     39 H2'        -0.0011    0.0027    0.0003 H         1 ATP         0.0854
     40 HO2'       -0.6141    0.5574    2.1082 H         1 ATP         0.4367
     41 H1'         1.7826    1.9024    1.6451 H         1 ATP         0.1343
     42 H8          0.7125    2.3429   -1.9292 H         1 ATP         0.3302
     43 HN62       -3.3217    6.4517    0.2629 H         1 ATP         0.4160
     44 H2         -1.5188    4.4223    3.7890 H         1 ATP         0.0756
     45 H45        -2.7470    5.7627    2.3665 H         1 ATP         0.4587
     46 H46        -1.0305    4.1680   -2.1054 H         1 ATP         0.5254
@<TRIPOS>BOND
     1    1    2 2
     2    1    3 1
     3    1    4 1
     4    1    8 1
     5    4   32 1
     6    5    6 2
     7    5    7 1
     8    5    8 1
     9    5   12 1
    10    7   33 1
    11    9   10 2
    12    9   11 1
    13    9   12 1
    14    9   13 1
    15   13   14 1
    16   14   15 1
    17   14   34 1
    18   14   35 1
    19   15   16 1
    20   15   17 1
    21   15   36 1
    22   16   21 1
    23   17   18 1
    24   17   19 1
    25   17   37 1
    26   18   38 1
    27   19   20 1
    28   19   21 1
    29   19   39 1
    30   20   40 1
    31   21   22 1
    32   21   41 1
    33   22   23 ar
    34   22   31 ar
    35   23   24 ar
    36   23   42 1
    37   24   25 ar
    38   24   46 1
    39   25   26 ar
    40   25   31 ar
    41   26   27 2
    42   26   28 ar
    43   27   43 1
    44   28   29 ar
    45   28   45 1
    46   29   30 ar
    47   29   44 1
    48   30   31 ar
@<TRIPOS>SUBSTRUCTURE
     1 ATP         1 GROUP 0 A     ****
@<TRIPOS>MOLECULE
[[[3,4-dihydroxy-5-(6-imino-7,8-dihydro-1~{H}-purin-8-ylium-9-yl)tetrahydrofuran-2-yl]methoxy-oxido-phosphoryl]oxy-hydroxy-phosphoryl] hydrogen phosphate
   46    48     1     0     0
SMALL
USER_CHARGES

@<TRIPOS>ATOM
      1 PG         -1.4963   -4.3698   -2.3682 P.3       1 ATP         1.5595
      2 O1G        -1.1190   -5.8112   -2.6287 O.co2     1 ATP        -0.8438
      3 O2G        -2.8566   -4.0110   -1.8128 O.co2     1 ATP        -0.8438
      4 O3G        -0.3535   -3.6993   -1.4141 O.3       1 ATP        -0.7800
      5 PB          0.0967   -3.3649   -4.6376 P.3       1 ATP         1.9223
      6 O1B         0.5914   -4.6460   -5.2412 O.2       1 ATP        -0.8953
      7 O2B        -0.2892   -2.2102   -5.7013 O.3       1 ATP        -0.8165
      8 O3B        -1.2285   -3.5008   -3.7221 O.3       1 ATP        -0.8247
      9 PA          2.6194   -2.0514   -3.8552 P.3       1 ATP         1.6157
     10 O1A         2.5492   -0.8935   -4.8270 O.co2     1 ATP        -0.8629
     11 O2A         3.5431   -3.2220   -4.1125 O.co2     1 ATP        -0.8629
     12 O3A         1.1116   -2.6310   -3.6173 O.3       1 ATP        -0.8191
     13 O5'         2.9216   -1.4836   -2.3516 O.3       1 ATP        -0.5644
     14 C5'         2.2816   -0.2918   -1.9206 C.3       1 ATP         0.2062
     15 C4'         2.7248    0.0226   -0.4980 C.3       1 ATP         0.0971
     16 O4'         2.4697    1.4219   -0.2462 O.3       1 ATP        -0.3662
     17 C3'         1.9404   -0.7419    0.5596 C.3       1 ATP         0.0734
     18 O3'         2.7418   -0.8086    1.7389 O.3       1 ATP        -0.5671
     19 C2'         0.7477    0.1630    0.7858 C.3       1 ATP         0.0745
     20 O2'         0.1373   -0.0577    2.0407 O.3       1 ATP        -0.5794
     21 C1'         1.3733    1.5427    0.6747 C.3       1 ATP         0.3824
     22 N9          0.4520    2.5240    0.1767 N.pl3     1 ATP        -0.4324
     23 C8          0.2216    2.8192   -1.0985 C.ar      1 ATP         0.2662
     24 N7         -0.6906    3.7763   -1.2384 N.pl3     1 ATP        -0.4772
     25 C5         -1.0575    4.1037    0.0366 C.ar      1 ATP        -0.1305
     26 C6         -2.0291    5.0943    0.5330 C.ar      1 ATP         0.7186
     27 N6         -2.7093    5.8371   -0.2800 N.2       1 ATP        -0.8115
     28 N1         -2.1051    5.1136    1.9204 N.pl3     1 ATP        -0.8400
     29 C2         -1.3354    4.2774    2.7129 C.ar      1 ATP         0.6671
     30 N3         -0.4707    3.3945    2.2944 N.2       1 ATP        -0.5806
     31 C4         -0.3734    3.3525    0.9220 C.ar      1 ATP         0.2748
     32 HOG3       -0.4559   -2.7592   -1.1534 H         1 ATP         0.4327
     33 HOB2        0.4031   -1.8757   -6.3104 H         1 ATP         0.4701
     34 H5'1        2.5589    0.5217   -2.5976 H         1 ATP         0.0401
     35 H5'2        1.1982   -0.4388   -1.9617 H         1 ATP         0.0401
     36 H4'         3.8044   -0.1397   -0.4040 H         1 ATP         0.1136
     37 H3'         1.6764   -1.7639    0.2728 H         1 ATP         0.0693
     38 HO3'        2.2232   -1.2979    2.3953 H         1 ATP         0.4124
     39 H2'        -0.0011    0.0027    0.0003 H         1 ATP         0.0854
     40 HO2'       -0.6141    0.5574    2.1082 H         1 ATP         0.4367
     41 H1'         1.7826    1.9024    1.6451 H         1 ATP         0.1343
     42 H8          0.7125    2.3429   -1.9292 H         1 ATP         0.3302
     43 HN62       -3.3217    6.4517    0.2629 H         1 ATP         0.4160
     44 H2         -1.5188    4.4223    3.7890 H         1 ATP         0.0756
     45 H45        -2.7470    5.7627    2.3665 H         1 ATP         0.4587
     46 H46        -1.0305    4.1680   -2.1054 H         1 ATP         0.5254
@<TRIPOS>BOND
     1    1    2 2
     2    1    3 1
     3    1    4 1
     4    1    8 1
     5    4   32 1
     6    5    6 2
     7    5    7 1
     8    5    8 1
     9    5   12 1
    10    7   33 1
    11    9   10 2
    12    9   11 1
    13    9   12 1
    14    9   13 1
    15   13   14 1
    16   14   15 1
    17   14   34 1
    18   14   35 1
    19   15   16 1
    20   15   17 1
    21   15   36 1
    22   16   21 1
    23   17   18 1
    24   17   19 1
    25   17   37 1
    26   18   38 1
    27   19   20 1
    28   19   21 1
    29   19   39 1
    30   20   40 1
    31   21   22 1
    32   21   41 1
    33   22   23 ar
    34   22   31 ar
    35   23   24 ar
    36   23   42 1
    37   24   25 ar
    38   24   46 1
    39   25   26 ar
    40   25   31 ar
    41   26   27 2
    42   26   28 ar
    43   27   43 1
    44   28   29 ar
    45   28   45 1
    46   29   30 ar
    47   29   44 1
    48   30   31 ar
@<TRIPOS>SUBSTRUCTURE
     1 ATP         1 GROUP 0 A     ****
@<TRIPOS>MOLECULE
[[[3,4-dihydroxy-5-(6-imino-7,8-dihydro-1~{H}-purin-8-ylium-9-yl)tetrahydrofuran-2-yl]methoxy-oxido-phosphoryl]oxy-hydroxy-phosphoryl] hydrogen phosphate
   46    48     1     0     0
SMALL
USER_CHARGES

@<TRIPOS>ATOM
      1 PG          2.1498    2.1451   -8.5737 P.3       1 ATP         1.5595
      2 O1G         3.5703    2.3347   -9.0574 O.co2     1 ATP        -0.8438
      3 O2G         1.1041    3.2149   -8.7959 O.co2     1 ATP        -0.8438
      4 O3G         1.5833    0.7346   -9.1699 O.3       1 ATP        -0.7800
      5 PB          0.9862    1.2917   -6.0016 P.3       1 ATP         1.9223
      6 O1B        -0.1257    2.2851   -5.8367 O.2       1 ATP        -0.8953
      7 O2B         0.5378   -0.1484   -6.5835 O.3       1 ATP        -0.8165
      8 O3B         2.1790    1.7503   -6.9915 O.3       1 ATP        -0.8247
      9 PA          3.0673   -0.0858   -4.4292 P.3       1 ATP         1.6157
     10 O1A         4.2678    0.4442   -5.1827 O.co2     1 ATP        -0.8629
     11 O2A         2.5799   -1.5015   -4.6484 O.co2     1 ATP        -0.8629
     12 O3A         1.8103    0.9304   -4.6600 O.3       1 ATP        -0.8191
     13 O5'         3.2903    0.1346   -2.8241 O.3       1 ATP        -0.5644
     14 C5'         2.2816   -0.2918   -1.9206 C.3       1 ATP         0.2062
     15 C4'         2.7248    0.0226   -0.4980 C.3       1 ATP         0.0971
     16 O4'         2.4697    1.4219   -0.2462 O.3       1 ATP        -0.3662
     17 C3'         1.9404   -0.7419    0.5596 C.3       1 ATP         0.0734
     18 O3'         2.7418   -0.8086    1.7389 O.3       1 ATP        -0.5671
     19 C2'         0.7477    0.1630    0.7858 C.3       1 ATP         0.0745
     20 O2'         0.1373   -0.0577    2.0407 O.3       1 ATP        -0.5794
     21 C1'         1.3733    1.5427    0.6747 C.3       1 ATP         0.3824
     22 N9          0.4520    2.5240    0.1767 N.pl3     1 ATP        -0.4324
     23 C8          0.2216    2.8192   -1.0985 C.ar      1 ATP         0.2662
     24 N7         -0.6906    3.7763   -1.2384 N.pl3     1 ATP        -0.4772
     25 C5         -1.0575    4.1037    0.0366 C.ar      1 ATP        -0.1305
     26 C6         -2.0291    5.0943    0.5330 C.ar      1 ATP         0.7186
     27 N6         -2.7093    5.8371   -0.2800 N.2       1 ATP        -0.8115
     28 N1         -2.1051    5.1136    1.9204 N.pl3     1 ATP        -0.8400
     29 C2         -1.3354    4.2774    2.7129 C.ar      1 ATP         0.6671
     30 N3         -0.4707    3.3945    2.2944 N.2       1 ATP        -0.5806
     31 C4         -0.3734    3.3525    0.9220 C.ar      1 ATP         0.2748
     32 HOG3        0.6671    0.4668   -8.9440 H         1 ATP         0.4327
     33 HOB2       -0.1161   -0.6802   -6.0816 H         1 ATP         0.4701
     34 H5'1        1.3514    0.2330   -2.1577 H         1 ATP         0.0401
     35 H5'2        2.1280   -1.3678   -2.0460 H         1 ATP         0.0401
     36 H4'         3.8044   -0.1397   -0.4040 H         1 ATP         0.1136
     37 H3'         1.6764   -1.7639    0.2728 H         1 ATP         0.0693
     38 HO3'        2.2232   -1.2979    2.3953 H         1 ATP         0.4124
     39 H2'        -0.0011    0.0027    0.0003 H         1 ATP         0.0854
     40 HO2'       -0.1563   -0.9855    2.0596 H         1 ATP         0.4367
     41 H1'         1.7826    1.9024    1.6451 H         1 ATP         0.1343
     42 H8          0.7125    2.3429   -1.9292 H         1 ATP         0.3302
     43 HN62       -3.3217    6.4517    0.2629 H         1 ATP         0.4160
     44 H2         -1.5188    4.4223    3.7890 H         1 ATP         0.0756
     45 H45        -2.7470    5.7627    2.3665 H         1 ATP         0.4587
     46 H46        -1.0305    4.1680   -2.1054 H         1 ATP         0.5254
@<TRIPOS>BOND
     1    1    2 2
     2    1    3 1
     3    1    4 1
     4    1    8 1
     5    4   32 1
     6    5    6 2
     7    5    7 1
     8    5    8 1
     9    5   12 1
    10    7   33 1
    11    9   10 2
    12    9   11 1
    13    9   12 1
    14    9   13 1
    15   13   14 1
    16   14   15 1
    17   14   34 1
    18   14   35 1
    19   15   16 1
    20   15   17 1
    21   15   36 1
    22   16   21 1
    23   17   18 1
    24   17   19 1
    25   17   37 1
    26   18   38 1
    27   19   20 1
    28   19   21 1
    29   19   39 1
    30   20   40 1
    31   21   22 1
    32   21   41 1
    33   22   23 ar
    34   22   31 ar
    35   23   24 ar
    36   23   42 1
    37   24   25 ar
    38   24   46 1
    39   25   26 ar
    40   25   31 ar
    41   26   27 2
    42   26   28 ar
    43   27   43 1
    44   28   29 ar
    45   28   45 1
    46   29   30 ar
    47   29   44 1
    48   30   31 ar
@<TRIPOS>SUBSTRUCTURE
     1 ATP         1 GROUP 0 A     ****
@<TRIPOS>MOLECULE
[[[3,4-dihydroxy-5-(6-imino-7,8-dihydro-1~{H}-purin-8-ylium-9-yl)tetrahydrofuran-2-yl]methoxy-oxido-phosphoryl]oxy-hydroxy-phosphoryl] hydrogen phosphate
   46    48     1     0     0
SMALL
USER_CHARGES

@<TRIPOS>ATOM
      1 PG         -0.9193   -1.9105   -7.3337 P.3       1 ATP         1.5595
      2 O1G        -0.8593   -3.3199   -7.8794 O.co2     1 ATP        -0.8438
      3 O2G        -0.3544   -0.7484   -8.1197 O.co2     1 ATP        -0.8438
      4 O3G        -2.4687   -1.5702   -6.9466 O.3       1 ATP        -0.7800
      5 PB         -0.6283   -2.7993   -4.5367 P.3       1 ATP         1.9223
      6 O1B        -2.0420   -2.6964   -4.0458 O.2       1 ATP        -0.8953
      7 O2B        -0.1587   -4.2852   -4.9668 O.3       1 ATP        -0.8165
      8 O3B        -0.2814   -1.8977   -5.8327 O.3       1 ATP        -0.8247
      9 PA          2.1371   -2.2715   -3.6563 P.3       1 ATP         1.6157
     10 O1A         2.4976   -1.2664   -4.7285 O.co2     1 ATP        -0.8629
     11 O2A         2.6455   -3.6950   -3.7283 O.co2     1 ATP        -0.8629
     12 O3A         0.5123   -2.3150   -3.5004 O.3       1 ATP        -0.8191
     13 O5'         2.5245   -1.6648   -2.1878 O.3       1 ATP        -0.5644
     14 C5'         2.2816   -0.2918   -1.9206 C.3       1 ATP         0.2062
     15 C4'         2.7248    0.0226   -0.4980 C.3       1 ATP         0.0971
     16 O4'         2.4697    1.4219   -0.2462 O.3       1 ATP        -0.3662
     17 C3'         1.9404   -0.7419    0.5596 C.3       1 ATP         0.0734
     18 O3'         2.7418   -0.8086    1.7389 O.3       1 ATP        -0.5671
     19 C2'         0.7477    0.1630    0.7858 C.3       1 ATP         0.0745
     20 O2'         0.1373   -0.0577    2.0407 O.3       1 ATP        -0.5794
     21 C1'         1.3733    1.5427    0.6747 C.3       1 ATP         0.3824
     22 N9          0.4520    2.5240    0.1767 N.pl3     1 ATP        -0.4324
     23 C8          0.2216    2.8192   -1.0985 C.ar      1 ATP         0.2662
     24 N7         -0.6906    3.7763   -1.2384 N.pl3     1 ATP        -0.4772
     25 C5         -1.0575    4.1037    0.0366 C.ar      1 ATP        -0.1305
     26 C6         -2.0291    5.0943    0.5330 C.ar      1 ATP         0.7186
     27 N6         -2.7093    5.8371   -0.2800 N.2       1 ATP        -0.8115
     28 N1         -2.1051    5.1136    1.9204 N.pl3     1 ATP        -0.8400
     29 C2         -1.3354    4.2774    2.7129 C.ar      1 ATP         0.6671
     30 N3         -0.4707    3.3945    2.2944 N.2       1 ATP        -0.5806
     31 C4         -0.3734    3.3525    0.9220 C.ar      1 ATP         0.2748
     32 HOG3       -2.6736   -0.6854   -6.5762 H         1 ATP         0.4327
     33 HOB2       -0.6411   -4.7457   -5.6862 H         1 ATP         0.4701
     34 H5'1        2.8432    0.3119   -2.6398 H         1 ATP         0.0401
     35 H5'2        1.2128   -0.0927   -2.0428 H         1 ATP         0.0401
     36 H4'         3.8044   -0.1397   -0.4040 H         1 ATP         0.1136
     37 H3'         1.6764   -1.7639    0.2728 H         1 ATP         0.0693
     38 HO3'        2.2232   -1.2979    2.3953 H         1 ATP         0.4124
     39 H2'        -0.0011    0.0027    0.0003 H         1 ATP         0.0854
     40 HO2'       -0.1563   -0.9855    2.0596 H         1 ATP         0.4367
     41 H1'         1.7826    1.9024    1.6451 H         1 ATP         0.1343
     42 H8          0.7125    2.3429   -1.9292 H         1 ATP         0.3302
     43 HN62       -3.3217    6.4517    0.2629 H         1 ATP         0.4160
     44 H2         -1.5188    4.4223    3.7890 H         1 ATP         0.0756
     45 H45        -2.7470    5.7627    2.3665 H         1 ATP         0.4587
     46 H46        -1.0305    4.1680   -2.1054 H         1 ATP         0.5254
@<TRIPOS>BOND
     1    1    2 2
     2    1    3 1
     3    1    4 1
     4    1    8 1
     5    4   32 1
     6    5    6 2
     7    5    7 1
     8    5    8 1
     9    5   12 1
    10    7   33 1
    11    9   10 2
    12    9   11 1
    13    9   12 1
    14    9   13 1
    15   13   14 1
    16   14   15 1
    17   14   34 1
    18   14   35 1
    19   15   16 1
    20   15   17 1
    21   15   36 1
    22   16   21 1
    23   17   18 1
    24   17   19 1
    25   17   37 1
    26   18   38 1
    27   19   20 1
    28   19   21 1
    29   19   39 1
    30   20   40 1
    31   21   22 1
    32   21   41 1
    33   22   23 ar
    34   22   31 ar
    35   23   24 ar
    36   23   42 1
    37   24   25 ar
    38   24   46 1
    39   25   26 ar
    40   25   31 ar
    41   26   27 2
    42   26   28 ar
    43   27   43 1
    44   28   29 ar
    45   28   45 1
    46   29   30 ar
    47   29   44 1
    48   30   31 ar
@<TRIPOS>SUBSTRUCTURE
     1 ATP         1 GROUP 0 A     ****
@<TRIPOS>MOLECULE
[[[3,4-dihydroxy-5-(6-imino-7,8-dihydro-1~{H}-purin-8-ylium-9-yl)tetrahydrofuran-2-yl]methoxy-oxido-phosphoryl]oxy-hydroxy-phosphoryl] hydrogen phosphate
   46    48     1     0     0
SMALL
USER_CHARGES

@<TRIPOS>ATOM
      1 PG          0.8084    2.5466   -8.2446 P.3       1 ATP         1.5595
      2 O1G         0.4656    1.3461   -9.0984 O.co2     1 ATP        -0.8438
      3 O2G         1.8959    3.5115   -8.6615 O.co2     1 ATP        -0.8438
      4 O3G        -0.5596    3.3947   -7.9697 O.3       1 ATP        -0.7800
      5 PB          0.2024    1.1404   -5.7240 P.3       1 ATP         1.9223
      6 O1B        -1.1476    1.7027   -5.3896 O.2       1 ATP        -0.8953
      7 O2B         0.1830   -0.3103   -6.4371 O.3       1 ATP        -0.8165
      8 O3B         1.0983    2.0449   -6.7200 O.3       1 ATP        -0.8247
      9 PA          2.7406    0.3767   -4.4296 P.3       1 ATP         1.6157
     10 O1A         3.6419    1.3302   -5.1835 O.co2     1 ATP        -0.8629
     11 O2A         2.7082   -1.0955   -4.7781 O.co2     1 ATP        -0.8629
     12 O3A         1.2118    0.9483   -4.4776 O.3       1 ATP        -0.8191
     13 O5'         3.0213    0.5153   -2.8245 O.3       1 ATP        -0.5644
     14 C5'         2.2816   -0.2918   -1.9206 C.3       1 ATP         0.2062
     15 C4'         2.7248    0.0226   -0.4980 C.3       1 ATP         0.0971
     16 O4'         2.4697    1.4219   -0.2462 O.3       1 ATP        -0.3662
     17 C3'         1.9404   -0.7419    0.5596 C.3       1 ATP         0.0734
     18 O3'         2.7418   -0.8086    1.7389 O.3       1 ATP        -0.5671
     19 C2'         0.7477    0.1630    0.7858 C.3       1 ATP         0.0745
     20 O2'         0.1373   -0.0577    2.0407 O.3       1 ATP        -0.5794
     21 C1'         1.3733    1.5427    0.6747 C.3       1 ATP         0.3824
     22 N9          0.4520    2.5240    0.1767 N.pl3     1 ATP        -0.4324
     23 C8         -0.2004    2.4829   -0.9804 C.ar      1 ATP         0.2662
     24 N7         -0.9830    3.5431   -1.1568 N.pl3     1 ATP        -0.4772
     25 C5         -0.8095    4.3012   -0.0331 C.ar      1 ATP        -0.1305
     26 C6         -1.4065    5.5904    0.3585 C.ar      1 ATP         0.7186
     27 N6         -2.2501    6.2030   -0.4084 N.2       1 ATP        -0.8115
     28 N1         -0.9585    6.0272    1.5994 N.pl3     1 ATP        -0.8400
     29 C2         -0.0508    5.3009    2.3532 C.ar      1 ATP         0.6671
     30 N3          0.4890    4.1592    2.0257 N.2       1 ATP        -0.5806
     31 C4          0.0637    3.7006    0.7995 C.ar      1 ATP         0.2748
     32 HOG3       -0.5025    4.2092   -7.4261 H         1 ATP         0.4327
     33 HOB2       -0.2231   -1.0668   -5.9628 H         1 ATP         0.4701
     34 H5'1        1.2163   -0.0770   -2.0471 H         1 ATP         0.0401
     35 H5'2        2.4655   -1.3443   -2.1563 H         1 ATP         0.0401
     36 H4'         3.8044   -0.1397   -0.4040 H         1 ATP         0.1136
     37 H3'         1.6764   -1.7639    0.2728 H         1 ATP         0.0693
     38 HO3'        2.2232   -1.2979    2.3953 H         1 ATP         0.4124
     39 H2'        -0.0011    0.0027    0.0003 H         1 ATP         0.0854
     40 HO2'       -0.1563   -0.9855    2.0596 H         1 ATP         0.4367
     41 H1'         1.7826    1.9024    1.6451 H         1 ATP         0.1343
     42 H8         -0.1116    1.6863   -1.6984 H         1 ATP         0.3302
     43 HN62       -2.5420    7.0730    0.0447 H         1 ATP         0.4160
     44 H2          0.1969    5.7893    3.3086 H         1 ATP         0.0756
     45 H45        -1.3097    6.9080    1.9642 H         1 ATP         0.4587
     46 H46        -1.5735    3.7351   -1.9538 H         1 ATP         0.5254
@<TRIPOS>BOND
     1    1    2 2
     2    1    3 1
     3    1    4 1
     4    1    8 1
     5    4   32 1
     6    5    6 2
     7    5    7 1
     8    5    8 1
     9    5   12 1
    10    7   33 1
    11    9   10 2
    12    9   11 1
    13    9   12 1
    14    9   13 1
    15   13   14 1
    16   14   15 1
    17   14   34 1
    18   14   35 1
    19   15   16 1
    20   15   17 1
    21   15   36 1
    22   16   21 1
    23   17   18 1
    24   17   19 1
    25   17   37 1
    26   18   38 1
    27   19   20 1
    28   19   21 1
    29   19   39 1
    30   20   40 1
    31   21   22 1
    32   21   41 1
    33   22   23 ar
    34   22   31 ar
    35   23   24 ar
    36   23   42 1
    37   24   25 ar
    38   24   46 1
    39   25   26 ar
    40   25   31 ar
    41   26   27 2
    42   26   28 ar
    43   27   43 1
    44   28   29 ar
    45   28   45 1
    46   29   30 ar
    47   29   44 1
    48   30   31 ar
@<TRIPOS>SUBSTRUCTURE
     1 ATP         1 GROUP 0 A     ****
@<TRIPOS>MOLECULE
[[[3,4-dihydroxy-5-(6-imino-7,8-dihydro-1~{H}-purin-8-ylium-9-yl)tetrahydrofuran-2-yl]methoxy-oxido-phosphoryl]oxy-hydroxy-phosphoryl] hydrogen phosphate
   46    48     1     0     0
SMALL
USER_CHARGES

@<TRIPOS>ATOM
      1 PG          2.5134   -1.4803   -8.7959 P.3       1 ATP         1.5595
      2 O1G         1.7628   -0.4303   -9.5845 O.co2     1 ATP        -0.8438
      3 O2G         2.1771   -2.9478   -8.9396 O.co2     1 ATP        -0.8438
      4 O3G         4.1122   -1.2861   -9.0650 O.3       1 ATP        -0.7800
      5 PB          1.2428   -1.0148   -6.1754 P.3       1 ATP         1.9223
      6 O1B         0.1445   -0.0622   -6.5450 O.2       1 ATP        -0.8953
      7 O2B         0.7887   -2.5590   -6.0243 O.3       1 ATP        -0.8165
      8 O3B         2.4786   -1.0790   -7.2154 O.3       1 ATP        -0.8247
      9 PA          2.8619    0.6169   -4.3269 P.3       1 ATP         1.6157
     10 O1A         1.9202    1.7974   -4.2284 O.co2     1 ATP        -0.8629
     11 O2A         4.1141    0.6950   -5.1728 O.co2     1 ATP        -0.8629
     12 O3A         2.0115   -0.6976   -4.7905 O.3       1 ATP        -0.8191
     13 O5'         3.2903    0.1346   -2.8241 O.3       1 ATP        -0.5644
     14 C5'         2.2816   -0.2918   -1.9206 C.3       1 ATP         0.2062
     15 C4'         2.7248    0.0226   -0.4980 C.3       1 ATP         0.0971
     16 O4'         2.4697    1.4219   -0.2462 O.3       1 ATP        -0.3662
     17 C3'         1.9404   -0.7419    0.5596 C.3       1 ATP         0.0734
     18 O3'         2.7418   -0.8086    1.7389 O.3       1 ATP        -0.5671
     19 C2'         0.7477    0.1630    0.7858 C.3       1 ATP         0.0745
     20 O2'         0.1373   -0.0577    2.0407 O.3       1 ATP        -0.5794
     21 C1'         1.3733    1.5427    0.6747 C.3       1 ATP         0.3824
     22 N9          0.4520    2.5240    0.1767 N.pl3     1 ATP        -0.4324
     23 C8          0.2216    2.8192   -1.0985 C.ar      1 ATP         0.2662
     24 N7         -0.6906    3.7763   -1.2384 N.pl3     1 ATP        -0.4772
     25 C5         -1.0575    4.1037    0.0366 C.ar      1 ATP        -0.1305
     26 C6         -2.0291    5.0943    0.5330 C.ar      1 ATP         0.7186
     27 N6         -2.7093    5.8371   -0.2800 N.2       1 ATP        -0.8115
     28 N1         -2.1051    5.1136    1.9204 N.pl3     1 ATP        -0.8400
     29 C2         -1.3354    4.2774    2.7129 C.ar      1 ATP         0.6671
     30 N3         -0.4707    3.3945    2.2944 N.2       1 ATP        -0.5806
     31 C4         -0.3734    3.3525    0.9220 C.ar      1 ATP         0.2748
     32 HOG3        4.7379   -1.8965   -8.6199 H         1 ATP         0.4327
     33 HOB2        0.3964   -3.0162   -6.7985 H         1 ATP         0.4701
     34 H5'1        1.3514    0.2330   -2.1577 H         1 ATP         0.0401
     35 H5'2        2.1280   -1.3678   -2.0460 H         1 ATP         0.0401
     36 H4'         3.8044   -0.1397   -0.4040 H         1 ATP         0.1136
     37 H3'         1.6764   -1.7639    0.2728 H         1 ATP         0.0693
     38 HO3'        2.2232   -1.2979    2.3953 H         1 ATP         0.4124
     39 H2'        -0.0011    0.0027    0.0003 H         1 ATP         0.0854
     40 HO2'       -0.6141    0.5574    2.1082 H         1 ATP         0.4367
     41 H1'         1.7826    1.9024    1.6451 H         1 ATP         0.1343
     42 H8          0.7125    2.3429   -1.9292 H         1 ATP         0.3302
     43 HN62       -3.3217    6.4517    0.2629 H         1 ATP         0.4160
     44 H2         -1.5188    4.4223    3.7890 H         1 ATP         0.0756
     45 H45        -2.7470    5.7627    2.3665 H         1 ATP         0.4587
     46 H46        -1.0305    4.1680   -2.1054 H         1 ATP         0.5254
@<TRIPOS>BOND
     1    1    2 2
     2    1    3 1
     3    1    4 1
     4    1    8 1
     5    4   32 1
     6    5    6 2
     7    5    7 1
     8    5    8 1
     9    5   12 1
    10    7   33 1
    11    9   10 2
    12    9   11 1
    13    9   12 1
    14    9   13 1
    15   13   14 1
    16   14   15 1
    17   14   34 1
    18   14   35 1
    19   15   16 1
    20   15   17 1
    21   15   36 1
    22   16   21 1
    23   17   18 1
    24   17   19 1
    25   17   37 1
    26   18   38 1
    27   19   20 1
    28   19   21 1
    29   19   39 1
    30   20   40 1
    31   21   22 1
    32   21   41 1
    33   22   23 ar
    34   22   31 ar
    35   23   24 ar
    36   23   42 1
    37   24   25 ar
    38   24   46 1
    39   25   26 ar
    40   25   31 ar
    41   26   27 2
    42   26   28 ar
    43   27   43 1
    44   28   29 ar
    45   28   45 1
    46   29   30 ar
    47   29   44 1
    48   30   31 ar
@<TRIPOS>SUBSTRUCTURE
     1 ATP         1 GROUP 0 A     ****
@<TRIPOS>MOLECULE
[[[3,4-dihydroxy-5-(6-imino-7,8-dihydro-1~{H}-purin-8-ylium-9-yl)tetrahydrofuran-2-yl]methoxy-oxido-phosphoryl]oxy-hydroxy-phosphoryl] hydrogen phosphate
   46    48     1     0     0
SMALL
USER_CHARGES

@<TRIPOS>ATOM
      1 PG          4.1737   -4.0133   -6.8944 P.3       1 ATP         1.5595
      2 O1G         2.7625   -4.2939   -7.3608 O.co2     1 ATP        -0.8438
      3 O2G         5.1039   -5.1423   -6.5103 O.co2     1 ATP        -0.8438
      4 O3G         4.9163   -3.0889   -8.0170 O.3       1 ATP        -0.7800
      5 PB          5.3153   -2.1589   -4.9055 P.3       1 ATP         1.9223
      6 O1B         6.3034   -3.0462   -4.2078 O.2       1 ATP        -0.8953
      7 O2B         5.9432   -1.1925   -6.0393 O.3       1 ATP        -0.8165
      8 O3B         4.1219   -2.9292   -5.6770 O.3       1 ATP        -0.8247
      9 PA          3.3342   -0.0516   -4.3262 P.3       1 ATP         1.6157
     10 O1A         2.1153   -0.7748   -4.8565 O.co2     1 ATP        -0.8629
     11 O2A         3.9830    1.0583   -5.1244 O.co2     1 ATP        -0.8629
     12 O3A         4.4805   -1.1538   -3.9557 O.3       1 ATP        -0.8191
     13 O5'         3.0213    0.5153   -2.8245 O.3       1 ATP        -0.5644
     14 C5'         2.2816   -0.2918   -1.9206 C.3       1 ATP         0.2062
     15 C4'         2.7248    0.0226   -0.4980 C.3       1 ATP         0.0971
     16 O4'         2.4697    1.4219   -0.2462 O.3       1 ATP        -0.3662
     17 C3'         1.9404   -0.7419    0.5596 C.3       1 ATP         0.0734
     18 O3'         2.7418   -0.8086    1.7389 O.3       1 ATP        -0.5671
     19 C2'         0.7477    0.1630    0.7858 C.3       1 ATP         0.0745
     20 O2'         0.1373   -0.0577    2.0407 O.3       1 ATP        -0.5794
     21 C1'         1.3733    1.5427    0.6747 C.3       1 ATP         0.3824
     22 N9          0.4520    2.5240    0.1767 N.pl3     1 ATP        -0.4324
     23 C8          0.2216    2.8192   -1.0985 C.ar      1 ATP         0.2662
     24 N7         -0.6906    3.7763   -1.2384 N.pl3     1 ATP        -0.4772
     25 C5         -1.0575    4.1037    0.0366 C.ar      1 ATP        -0.1305
     26 C6         -2.0291    5.0943    0.5330 C.ar      1 ATP         0.7186
     27 N6         -2.7093    5.8371   -0.2800 N.2       1 ATP        -0.8115
     28 N1         -2.1051    5.1136    1.9204 N.pl3     1 ATP        -0.8400
     29 C2         -1.3354    4.2774    2.7129 C.ar      1 ATP         0.6671
     30 N3         -0.4707    3.3945    2.2944 N.2       1 ATP        -0.5806
     31 C4         -0.3734    3.3525    0.9220 C.ar      1 ATP         0.2748
     32 HOG3        5.8461   -2.8194   -7.8588 H         1 ATP         0.4327
     33 HOB2        6.6300   -0.5416   -5.7806 H         1 ATP         0.4701
     34 H5'1        1.2163   -0.0770   -2.0471 H         1 ATP         0.0401
     35 H5'2        2.4655   -1.3443   -2.1563 H         1 ATP         0.0401
     36 H4'         3.8044   -0.1397   -0.4040 H         1 ATP         0.1136
     37 H3'         1.6764   -1.7639    0.2728 H         1 ATP         0.0693
     38 HO3'        2.2232   -1.2979    2.3953 H         1 ATP         0.4124
     39 H2'        -0.0011    0.0027    0.0003 H         1 ATP         0.0854
     40 HO2'       -0.6141    0.5574    2.1082 H         1 ATP         0.4367
     41 H1'         1.7826    1.9024    1.6451 H         1 ATP         0.1343
     42 H8          0.7125    2.3429   -1.9292 H         1 ATP         0.3302
     43 HN62       -3.3217    6.4517    0.2629 H         1 ATP         0.4160
     44 H2         -1.5188    4.4223    3.7890 H         1 ATP         0.0756
     45 H45        -2.7470    5.7627    2.3665 H         1 ATP         0.4587
     46 H46        -1.0305    4.1680   -2.1054 H         1 ATP         0.5254
@<TRIPOS>BOND
     1    1    2 2
     2    1    3 1
     3    1    4 1
     4    1    8 1
     5    4   32 1
     6    5    6 2
     7    5    7 1
     8    5    8 1
     9    5   12 1
    10    7   33 1
    11    9   10 2
    12    9   11 1
    13    9   12 1
    14    9   13 1
    15   13   14 1
    16   14   15 1
    17   14   34 1
    18   14   35 1
    19   15   16 1
    20   15   17 1
    21   15   36 1
    22   16   21 1
    23   17   18 1
    24   17   19 1
    25   17   37 1
    26   18   38 1
    27   19   20 1
    28   19   21 1
    29   19   39 1
    30   20   40 1
    31   21   22 1
    32   21   41 1
    33   22   23 ar
    34   22   31 ar
    35   23   24 ar
    36   23   42 1
    37   24   25 ar
    38   24   46 1
    39   25   26 ar
    40   25   31 ar
    41   26   27 2
    42   26   28 ar
    43   27   43 1
    44   28   29 ar
    45   28   45 1
    46   29   30 ar
    47   29   44 1
    48   30   31 ar
@<TRIPOS>SUBSTRUCTURE
     1 ATP         1 GROUP 0 A     ****
@<TRIPOS>MOLECULE
[[[3,4-dihydroxy-5-(6-imino-7,8-dihydro-1~{H}-purin-8-ylium-9-yl)tetrahydrofuran-2-yl]methoxy-oxido-phosphoryl]oxy-hydroxy-phosphoryl] hydrogen phosphate
   46    48     1     0     0
SMALL
USER_CHARGES

@<TRIPOS>ATOM
      1 PG         -1.0564    0.0254   -7.2608 P.3       1 ATP         1.5595
      2 O1G        -1.7819   -1.1326   -7.9093 O.co2     1 ATP        -0.8438
      3 O2G        -0.2242    0.9812   -8.0861 O.co2     1 ATP        -0.8438
      4 O3G        -2.1349    0.8925   -6.3941 O.3       1 ATP        -0.7800
      5 PB          1.1503   -1.5026   -6.0388 P.3       1 ATP         1.9223
      6 O1B         0.9389   -2.8598   -6.6418 O.2       1 ATP        -0.8953
      7 O2B         2.2858   -0.6031   -6.7566 O.3       1 ATP        -0.8165
      8 O3B        -0.1499   -0.5424   -6.0295 O.3       1 ATP        -0.8247
      9 PA          2.8603   -2.1314   -3.7189 P.3       1 ATP         1.6157
     10 O1A         4.1108   -1.4269   -4.1982 O.co2     1 ATP        -0.8629
     11 O2A         2.7468   -3.6387   -3.7889 O.co2     1 ATP        -0.8629
     12 O3A         1.5677   -1.4844   -4.4784 O.3       1 ATP        -0.8191
     13 O5'         2.5245   -1.6648   -2.1878 O.3       1 ATP        -0.5644
     14 C5'         2.2816   -0.2918   -1.9206 C.3       1 ATP         0.2062
     15 C4'         2.7248    0.0226   -0.4980 C.3       1 ATP         0.0971
     16 O4'         2.4697    1.4219   -0.2462 O.3       1 ATP        -0.3662
     17 C3'         1.9404   -0.7419    0.5596 C.3       1 ATP         0.0734
     18 O3'         2.7418   -0.8086    1.7389 O.3       1 ATP        -0.5671
     19 C2'         0.7477    0.1630    0.7858 C.3       1 ATP         0.0745
     20 O2'         0.1373   -0.0577    2.0407 O.3       1 ATP        -0.5794
     21 C1'         1.3733    1.5427    0.6747 C.3       1 ATP         0.3824
     22 N9          0.4520    2.5240    0.1767 N.pl3     1 ATP        -0.4324
     23 C8          0.2216    2.8192   -1.0985 C.ar      1 ATP         0.2662
     24 N7         -0.6906    3.7763   -1.2384 N.pl3     1 ATP        -0.4772
     25 C5         -1.0575    4.1037    0.0366 C.ar      1 ATP        -0.1305
     26 C6         -2.0291    5.0943    0.5330 C.ar      1 ATP         0.7186
     27 N6         -2.7093    5.8371   -0.2800 N.2       1 ATP        -0.8115
     28 N1         -2.1051    5.1136    1.9204 N.pl3     1 ATP        -0.8400
     29 C2         -1.3354    4.2774    2.7129 C.ar      1 ATP         0.6671
     30 N3         -0.4707    3.3945    2.2944 N.2       1 ATP        -0.5806
     31 C4         -0.3734    3.3525    0.9220 C.ar      1 ATP         0.2748
     32 HOG3       -1.8161    1.6836   -5.9095 H         1 ATP         0.4327
     33 HOB2        3.2068   -0.9393   -6.7897 H         1 ATP         0.4701
     34 H5'1        2.8432    0.3119   -2.6398 H         1 ATP         0.0401
     35 H5'2        1.2128   -0.0927   -2.0428 H         1 ATP         0.0401
     36 H4'         3.8044   -0.1397   -0.4040 H         1 ATP         0.1136
     37 H3'         1.6764   -1.7639    0.2728 H         1 ATP         0.0693
     38 HO3'        2.2232   -1.2979    2.3953 H         1 ATP         0.4124
     39 H2'        -0.0011    0.0027    0.0003 H         1 ATP         0.0854
     40 HO2'       -0.6141    0.5574    2.1082 H         1 ATP         0.4367
     41 H1'         1.7826    1.9024    1.6451 H         1 ATP         0.1343
     42 H8          0.7125    2.3429   -1.9292 H         1 ATP         0.3302
     43 HN62       -3.3217    6.4517    0.2629 H         1 ATP         0.4160
     44 H2         -1.5188    4.4223    3.7890 H         1 ATP         0.0756
     45 H45        -2.7470    5.7627    2.3665 H         1 ATP         0.4587
     46 H46        -1.0305    4.1680   -2.1054 H         1 ATP         0.5254
@<TRIPOS>BOND
     1    1    2 2
     2    1    3 1
     3    1    4 1
     4    1    8 1
     5    4   32 1
     6    5    6 2
     7    5    7 1
     8    5    8 1
     9    5   12 1
    10    7   33 1
    11    9   10 2
    12    9   11 1
    13    9   12 1
    14    9   13 1
    15   13   14 1
    16   14   15 1
    17   14   34 1
    18   14   35 1
    19   15   16 1
    20   15   17 1
    21   15   36 1
    22   16   21 1
    23   17   18 1
    24   17   19 1
    25   17   37 1
    26   18   38 1
    27   19   20 1
    28   19   21 1
    29   19   39 1
    30   20   40 1
    31   21   22 1
    32   21   41 1
    33   22   23 ar
    34   22   31 ar
    35   23   24 ar
    36   23   42 1
    37   24   25 ar
    38   24   46 1
    39   25   26 ar
    40   25   31 ar
    41   26   27 2
    42   26   28 ar
    43   27   43 1
    44   28   29 ar
    45   28   45 1
    46   29   30 ar
    47   29   44 1
    48   30   31 ar
@<TRIPOS>SUBSTRUCTURE
     1 ATP         1 GROUP 0 A     ****
@<TRIPOS>MOLECULE
[[[3,4-dihydroxy-5-(6-imino-7,8-dihydro-1~{H}-purin-8-ylium-9-yl)tetrahydrofuran-2-yl]methoxy-oxido-phosphoryl]oxy-hydroxy-phosphoryl] hydrogen phosphate
   46    48     1     0     0
SMALL
USER_CHARGES

@<TRIPOS>ATOM
      1 PG          1.2489   -3.2864   -7.4374 P.3       1 ATP         1.5595
      2 O1G         1.9871   -3.0103   -8.7283 O.co2     1 ATP        -0.8438
      3 O2G        -0.2461   -3.5152   -7.4309 O.co2     1 ATP        -0.8438
      4 O3G         1.9693   -4.5455   -6.6876 O.3       1 ATP        -0.7800
      5 PB          1.2564   -0.5402   -6.3622 P.3       1 ATP         1.9223
      6 O1B         1.7853    0.2338   -7.5333 O.2       1 ATP        -0.8953
      7 O2B        -0.3508   -0.5104   -6.1906 O.3       1 ATP        -0.8165
      8 O3B         1.6127   -2.1169   -6.3604 O.3       1 ATP        -0.8247
      9 PA          3.3342   -0.0516   -4.3262 P.3       1 ATP         1.6157
     10 O1A         4.1296    0.9783   -5.0986 O.co2     1 ATP        -0.8629
     11 O2A         3.8297   -1.4758   -4.1998 O.co2     1 ATP        -0.8629
     12 O3A         1.8112   -0.0892   -4.9136 O.3       1 ATP        -0.8191
     13 O5'         3.0213    0.5153   -2.8245 O.3       1 ATP        -0.5644
     14 C5'         2.2816   -0.2918   -1.9206 C.3       1 ATP         0.2062
     15 C4'         2.7248    0.0226   -0.4980 C.3       1 ATP         0.0971
     16 O4'         2.4697    1.4219   -0.2462 O.3       1 ATP        -0.3662
     17 C3'         1.9404   -0.7419    0.5596 C.3       1 ATP         0.0734
     18 O3'         2.7418   -0.8086    1.7389 O.3       1 ATP        -0.5671
     19 C2'         0.7477    0.1630    0.7858 C.3       1 ATP         0.0745
     20 O2'         0.1373   -0.0577    2.0407 O.3       1 ATP        -0.5794
     21 C1'         1.3733    1.5427    0.6747 C.3       1 ATP         0.3824
     22 N9          0.4520    2.5240    0.1767 N.pl3     1 ATP        -0.4324
     23 C8          0.2216    2.8192   -1.0985 C.ar      1 ATP         0.2662
     24 N7         -0.6906    3.7763   -1.2384 N.pl3     1 ATP        -0.4772
     25 C5         -1.0575    4.1037    0.0366 C.ar      1 ATP        -0.1305
     26 C6         -2.0291    5.0943    0.5330 C.ar      1 ATP         0.7186
     27 N6         -2.7093    5.8371   -0.2800 N.2       1 ATP        -0.8115
     28 N1         -2.1051    5.1136    1.9204 N.pl3     1 ATP        -0.8400
     29 C2         -1.3354    4.2774    2.7129 C.ar      1 ATP         0.6671
     30 N3         -0.4707    3.3945    2.2944 N.2       1 ATP        -0.5806
     31 C4         -0.3734    3.3525    0.9220 C.ar      1 ATP         0.2748
     32 HOG3        1.6038   -4.8488   -5.8294 H         1 ATP         0.4327
     33 HOB2       -0.9120   -0.8599   -6.9154 H         1 ATP         0.4701
     34 H5'1        1.2163   -0.0770   -2.0471 H         1 ATP         0.0401
     35 H5'2        2.4655   -1.3443   -2.1563 H         1 ATP         0.0401
     36 H4'         3.8044   -0.1397   -0.4040 H         1 ATP         0.1136
     37 H3'         1.6764   -1.7639    0.2728 H         1 ATP         0.0693
     38 HO3'        3.5554   -1.2733    1.4914 H         1 ATP         0.4124
     39 H2'        -0.0011    0.0027    0.0003 H         1 ATP         0.0854
     40 HO2'       -0.1563   -0.9855    2.0596 H         1 ATP         0.4367
     41 H1'         1.7826    1.9024    1.6451 H         1 ATP         0.1343
     42 H8          0.7125    2.3429   -1.9292 H         1 ATP         0.3302
     43 HN62       -3.3217    6.4517    0.2629 H         1 ATP         0.4160
     44 H2         -1.5188    4.4223    3.7890 H         1 ATP         0.0756
     45 H45        -2.7470    5.7627    2.3665 H         1 ATP         0.4587
     46 H46        -1.0305    4.1680   -2.1054 H         1 ATP         0.5254
@<TRIPOS>BOND
     1    1    2 2
     2    1    3 1
     3    1    4 1
     4    1    8 1
     5    4   32 1
     6    5    6 2
     7    5    7 1
     8    5    8 1
     9    5   12 1
    10    7   33 1
    11    9   10 2
    12    9   11 1
    13    9   12 1
    14    9   13 1
    15   13   14 1
    16   14   15 1
    17   14   34 1
    18   14   35 1
    19   15   16 1
    20   15   17 1
    21   15   36 1
    22   16   21 1
    23   17   18 1
    24   17   19 1
    25   17   37 1
    26   18   38 1
    27   19   20 1
    28   19   21 1
    29   19   39 1
    30   20   40 1
    31   21   22 1
    32   21   41 1
    33   22   23 ar
    34   22   31 ar
    35   23   24 ar
    36   23   42 1
    37   24   25 ar
    38   24   46 1
    39   25   26 ar
    40   25   31 ar
    41   26   27 2
    42   26   28 ar
    43   27   43 1
    44   28   29 ar
    45   28   45 1
    46   29   30 ar
    47   29   44 1
    48   30   31 ar
@<TRIPOS>SUBSTRUCTURE
     1 ATP         1 GROUP 0 A     ****
@<TRIPOS>MOLECULE
[[[3,4-dihydroxy-5-(6-imino-7,8-dihydro-1~{H}-purin-8-ylium-9-yl)tetrahydrofuran-2-yl]methoxy-oxido-phosphoryl]oxy-hydroxy-phosphoryl] hydrogen phosphate
   46    48     1     0     0
SMALL
USER_CHARGES

@<TRIPOS>ATOM
      1 PG          2.4799    0.8050   -6.8511 P.3       1 ATP         1.5595
      2 O1G         3.4202    1.2867   -7.9335 O.co2     1 ATP        -0.8438
      3 O2G         2.6746    1.2224   -5.4105 O.co2     1 ATP        -0.8438
      4 O3G         0.9507    1.1680   -7.2939 O.3       1 ATP        -0.7800
      5 PB          1.4238   -1.8510   -6.1246 P.3       1 ATP         1.9223
      6 O1B        -0.0484   -1.6495   -6.3303 O.2       1 ATP        -0.8953
      7 O2B         1.9831   -3.3054   -6.5551 O.3       1 ATP        -0.8165
      8 O3B         2.3788   -0.8211   -6.9247 O.3       1 ATP        -0.8247
      9 PA          1.5543   -2.4556   -3.2404 P.3       1 ATP         1.6157
     10 O1A         2.0068   -3.8946   -3.3602 O.co2     1 ATP        -0.8629
     11 O2A         0.1179   -2.1223   -2.9006 O.co2     1 ATP        -0.8629
     12 O3A         1.9540   -1.6623   -4.6104 O.3       1 ATP        -0.8191
     13 O5'         2.5245   -1.6648   -2.1878 O.3       1 ATP        -0.5644
     14 C5'         2.2816   -0.2918   -1.9206 C.3       1 ATP         0.2062
     15 C4'         2.7248    0.0226   -0.4980 C.3       1 ATP         0.0971
     16 O4'         2.4697    1.4219   -0.2462 O.3       1 ATP        -0.3662
     17 C3'         1.9404   -0.7419    0.5596 C.3       1 ATP         0.0734
     18 O3'         2.7418   -0.8086    1.7389 O.3       1 ATP        -0.5671
     19 C2'         0.7477    0.1630    0.7858 C.3       1 ATP         0.0745
     20 O2'         0.1373   -0.0577    2.0407 O.3       1 ATP        -0.5794
     21 C1'         1.3733    1.5427    0.6747 C.3       1 ATP         0.3824
     22 N9          0.4520    2.5240    0.1767 N.pl3     1 ATP        -0.4324
     23 C8          0.2216    2.8192   -1.0985 C.ar      1 ATP         0.2662
     24 N7         -0.6906    3.7763   -1.2384 N.pl3     1 ATP        -0.4772
     25 C5         -1.0575    4.1037    0.0366 C.ar      1 ATP        -0.1305
     26 C6         -2.0291    5.0943    0.5330 C.ar      1 ATP         0.7186
     27 N6         -2.7093    5.8371   -0.2800 N.2       1 ATP        -0.8115
     28 N1         -2.1051    5.1136    1.9204 N.pl3     1 ATP        -0.8400
     29 C2         -1.3354    4.2774    2.7129 C.ar      1 ATP         0.6671
     30 N3         -0.4707    3.3945    2.2944 N.2       1 ATP        -0.5806
     31 C4         -0.3734    3.3525    0.9220 C.ar      1 ATP         0.2748
     32 HOG3        0.2185    0.9178   -6.6911 H         1 ATP         0.4327
     33 HOB2        1.8823   -3.5960   -7.4866 H         1 ATP         0.4701
     34 H5'1        2.8432    0.3119   -2.6398 H         1 ATP         0.0401
     35 H5'2        1.2128   -0.0927   -2.0428 H         1 ATP         0.0401
     36 H4'         3.8044   -0.1397   -0.4040 H         1 ATP         0.1136
     37 H3'         1.6764   -1.7639    0.2728 H         1 ATP         0.0693
     38 HO3'        3.5554   -1.2733    1.4914 H         1 ATP         0.4124
     39 H2'        -0.0011    0.0027    0.0003 H         1 ATP         0.0854
     40 HO2'       -0.6141    0.5574    2.1082 H         1 ATP         0.4367
     41 H1'         1.7826    1.9024    1.6451 H         1 ATP         0.1343
     42 H8          0.7125    2.3429   -1.9292 H         1 ATP         0.3302
     43 HN62       -3.3217    6.4517    0.2629 H         1 ATP         0.4160
     44 H2         -1.5188    4.4223    3.7890 H         1 ATP         0.0756
     45 H45        -2.7470    5.7627    2.3665 H         1 ATP         0.4587
     46 H46        -1.0305    4.1680   -2.1054 H         1 ATP         0.5254
@<TRIPOS>BOND
     1    1    2 2
     2    1    3 1
     3    1    4 1
     4    1    8 1
     5    4   32 1
     6    5    6 2
     7    5    7 1
     8    5    8 1
     9    5   12 1
    10    7   33 1
    11    9   10 2
    12    9   11 1
    13    9   12 1
    14    9   13 1
    15   13   14 1
    16   14   15 1
    17   14   34 1
    18   14   35 1
    19   15   16 1
    20   15   17 1
    21   15   36 1
    22   16   21 1
    23   17   18 1
    24   17   19 1
    25   17   37 1
    26   18   38 1
    27   19   20 1
    28   19   21 1
    29   19   39 1
    30   20   40 1
    31   21   22 1
    32   21   41 1
    33   22   23 ar
    34   22   31 ar
    35   23   24 ar
    36   23   42 1
    37   24   25 ar
    38   24   46 1
    39   25   26 ar
    40   25   31 ar
    41   26   27 2
    42   26   28 ar
    43   27   43 1
    44   28   29 ar
    45   28   45 1
    46   29   30 ar
    47   29   44 1
    48   30   31 ar
@<TRIPOS>SUBSTRUCTURE
     1 ATP         1 GROUP 0 A     ****
@<TRIPOS>MOLECULE
[[[3,4-dihydroxy-5-(6-imino-7,8-dihydro-1~{H}-purin-8-ylium-9-yl)tetrahydrofuran-2-yl]methoxy-oxido-phosphoryl]oxy-hydroxy-phosphoryl] hydrogen phosphate
   46    48     1     0     0
SMALL
USER_CHARGES

@<TRIPOS>ATOM
      1 PG          2.5295   -0.5408   -8.5243 P.3       1 ATP         1.5595
      2 O1G         1.2486    0.0802   -9.0355 O.co2     1 ATP        -0.8438
      3 O2G         3.1167   -1.7670   -9.1868 O.co2     1 ATP        -0.8438
      4 O3G         3.6792    0.6172   -8.4650 O.3       1 ATP        -0.7800
      5 PB          1.4238   -1.8510   -6.1246 P.3       1 ATP         1.9223
      6 O1B        -0.0484   -1.6495   -6.3303 O.2       1 ATP        -0.8953
      7 O2B         1.9831   -3.3054   -6.5551 O.3       1 ATP        -0.8165
      8 O3B         2.3788   -0.8211   -6.9247 O.3       1 ATP        -0.8247
      9 PA          1.5543   -2.4556   -3.2404 P.3       1 ATP         1.6157
     10 O1A         2.0068   -3.8946   -3.3602 O.co2     1 ATP        -0.8629
     11 O2A         0.1179   -2.1223   -2.9006 O.co2     1 ATP        -0.8629
     12 O3A         1.9540   -1.6623   -4.6104 O.3       1 ATP        -0.8191
     13 O5'         2.5245   -1.6648   -2.1878 O.3       1 ATP        -0.5644
     14 C5'         2.2816   -0.2918   -1.9206 C.3       1 ATP         0.2062
     15 C4'         2.7248    0.0226   -0.4980 C.3       1 ATP         0.0971
     16 O4'         2.4697    1.4219   -0.2462 O.3       1 ATP        -0.3662
     17 C3'         1.9404   -0.7419    0.5596 C.3       1 ATP         0.0734
     18 O3'         2.7418   -0.8086    1.7389 O.3       1 ATP        -0.5671
     19 C2'         0.7477    0.1630    0.7858 C.3       1 ATP         0.0745
     20 O2'         0.1373   -0.0577    2.0407 O.3       1 ATP        -0.5794
     21 C1'         1.3733    1.5427    0.6747 C.3       1 ATP         0.3824
     22 N9          0.4520    2.5240    0.1767 N.pl3     1 ATP        -0.4324
     23 C8          0.2216    2.8192   -1.0985 C.ar      1 ATP         0.2662
     24 N7         -0.6906    3.7763   -1.2384 N.pl3     1 ATP        -0.4772
     25 C5         -1.0575    4.1037    0.0366 C.ar      1 ATP        -0.1305
     26 C6         -2.0291    5.0943    0.5330 C.ar      1 ATP         0.7186
     27 N6         -2.7093    5.8371   -0.2800 N.2       1 ATP        -0.8115
     28 N1         -2.1051    5.1136    1.9204 N.pl3     1 ATP        -0.8400
     29 C2         -1.3354    4.2774    2.7129 C.ar      1 ATP         0.6671
     30 N3         -0.4707    3.3945    2.2944 N.2       1 ATP        -0.5806
     31 C4         -0.3734    3.3525    0.9220 C.ar      1 ATP         0.2748
     32 HOG3        4.5749    0.3698   -8.1511 H         1 ATP         0.4327
     33 HOB2        1.8823   -3.5960   -7.4866 H         1 ATP         0.4701
     34 H5'1        2.8432    0.3119   -2.6398 H         1 ATP         0.0401
     35 H5'2        1.2128   -0.0927   -2.0428 H         1 ATP         0.0401
     36 H4'         3.8044   -0.1397   -0.4040 H         1 ATP         0.1136
     37 H3'         1.6764   -1.7639    0.2728 H         1 ATP         0.0693
     38 HO3'        2.2232   -1.2979    2.3953 H         1 ATP         0.4124
     39 H2'        -0.0011    0.0027    0.0003 H         1 ATP         0.0854
     40 HO2'       -0.1563   -0.9855    2.0596 H         1 ATP         0.4367
     41 H1'         1.7826    1.9024    1.6451 H         1 ATP         0.1343
     42 H8          0.7125    2.3429   -1.9292 H         1 ATP         0.3302
     43 HN62       -3.3217    6.4517    0.2629 H         1 ATP         0.4160
     44 H2         -1.5188    4.4223    3.7890 H         1 ATP         0.0756
     45 H45        -2.7470    5.7627    2.3665 H         1 ATP         0.4587
     46 H46        -1.0305    4.1680   -2.1054 H         1 ATP         0.5254
@<TRIPOS>BOND
     1    1    2 2
     2    1    3 1
     3    1    4 1
     4    1    8 1
     5    4   32 1
     6    5    6 2
     7    5    7 1
     8    5    8 1
     9    5   12 1
    10    7   33 1
    11    9   10 2
    12    9   11 1
    13    9   12 1
    14    9   13 1
    15   13   14 1
    16   14   15 1
    17   14   34 1
    18   14   35 1
    19   15   16 1
    20   15   17 1
    21   15   36 1
    22   16   21 1
    23   17   18 1
    24   17   19 1
    25   17   37 1
    26   18   38 1
    27   19   20 1
    28   19   21 1
    29   19   39 1
    30   20   40 1
    31   21   22 1
    32   21   41 1
    33   22   23 ar
    34   22   31 ar
    35   23   24 ar
    36   23   42 1
    37   24   25 ar
    38   24   46 1
    39   25   26 ar
    40   25   31 ar
    41   26   27 2
    42   26   28 ar
    43   27   43 1
    44   28   29 ar
    45   28   45 1
    46   29   30 ar
    47   29   44 1
    48   30   31 ar
@<TRIPOS>SUBSTRUCTURE
     1 ATP         1 GROUP 0 A     ****
@<TRIPOS>MOLECULE
[[[3,4-dihydroxy-5-(6-imino-7,8-dihydro-1~{H}-purin-8-ylium-9-yl)tetrahydrofuran-2-yl]methoxy-oxido-phosphoryl]oxy-hydroxy-phosphoryl] hydrogen phosphate
   46    48     1     0     0
SMALL
USER_CHARGES

@<TRIPOS>ATOM
      1 PG          4.7913   -0.0263   -7.7601 P.3       1 ATP         1.5595
      2 O1G         6.0434    0.8179   -7.6754 O.co2     1 ATP        -0.8438
      3 O2G         3.5415    0.5024   -8.4280 O.co2     1 ATP        -0.8438
      4 O3G         5.1771   -1.4588   -8.4423 O.3       1 ATP        -0.7800
      5 PB          5.3037   -1.3495   -5.1747 P.3       1 ATP         1.9223
      6 O1B         5.8331   -2.6793   -5.6236 O.2       1 ATP        -0.8953
      7 O2B         6.4307   -0.2717   -4.7482 O.3       1 ATP        -0.8165
      8 O3B         4.4112   -0.5588   -6.2661 O.3       1 ATP        -0.8247
      9 PA          2.8603   -2.1314   -3.7189 P.3       1 ATP         1.6157
     10 O1A         3.0799   -3.6282   -3.7534 O.co2     1 ATP        -0.8629
     11 O2A         1.8577   -1.4754   -4.6432 O.co2     1 ATP        -0.8629
     12 O3A         4.2991   -1.3837   -3.9101 O.3       1 ATP        -0.8191
     13 O5'         2.5245   -1.6648   -2.1878 O.3       1 ATP        -0.5644
     14 C5'         2.2816   -0.2918   -1.9206 C.3       1 ATP         0.2062
     15 C4'         2.7248    0.0226   -0.4980 C.3       1 ATP         0.0971
     16 O4'         2.4697    1.4219   -0.2462 O.3       1 ATP        -0.3662
     17 C3'         1.9404   -0.7419    0.5596 C.3       1 ATP         0.0734
     18 O3'         2.7418   -0.8086    1.7389 O.3       1 ATP        -0.5671
     19 C2'         0.7477    0.1630    0.7858 C.3       1 ATP         0.0745
     20 O2'         0.1373   -0.0577    2.0407 O.3       1 ATP        -0.5794
     21 C1'         1.3733    1.5427    0.6747 C.3       1 ATP         0.3824
     22 N9          0.4520    2.5240    0.1767 N.pl3     1 ATP        -0.4324
     23 C8          0.2216    2.8192   -1.0985 C.ar      1 ATP         0.2662
     24 N7         -0.6906    3.7763   -1.2384 N.pl3     1 ATP        -0.4772
     25 C5         -1.0575    4.1037    0.0366 C.ar      1 ATP        -0.1305
     26 C6         -2.0291    5.0943    0.5330 C.ar      1 ATP         0.7186
     27 N6         -2.7093    5.8371   -0.2800 N.2       1 ATP        -0.8115
     28 N1         -2.1051    5.1136    1.9204 N.pl3     1 ATP        -0.8400
     29 C2         -1.3354    4.2774    2.7129 C.ar      1 ATP         0.6671
     30 N3         -0.4707    3.3945    2.2944 N.2       1 ATP        -0.5806
     31 C4         -0.3734    3.3525    0.9220 C.ar      1 ATP         0.2748
     32 HOG3        4.4660   -2.1227   -8.5676 H         1 ATP         0.4327
     33 HOB2        7.0971    0.0061   -5.4123 H         1 ATP         0.4701
     34 H5'1        2.8432    0.3119   -2.6398 H         1 ATP         0.0401
     35 H5'2        1.2128   -0.0927   -2.0428 H         1 ATP         0.0401
     36 H4'         3.8044   -0.1397   -0.4040 H         1 ATP         0.1136
     37 H3'         1.6764   -1.7639    0.2728 H         1 ATP         0.0693
     38 HO3'        2.2232   -1.2979    2.3953 H         1 ATP         0.4124
     39 H2'        -0.0011    0.0027    0.0003 H         1 ATP         0.0854
     40 HO2'       -0.6141    0.5574    2.1082 H         1 ATP         0.4367
     41 H1'         1.7826    1.9024    1.6451 H         1 ATP         0.1343
     42 H8          0.7125    2.3429   -1.9292 H         1 ATP         0.3302
     43 HN62       -3.3217    6.4517    0.2629 H         1 ATP         0.4160
     44 H2         -1.5188    4.4223    3.7890 H         1 ATP         0.0756
     45 H45        -2.7470    5.7627    2.3665 H         1 ATP         0.4587
     46 H46        -1.0305    4.1680   -2.1054 H         1 ATP         0.5254
@<TRIPOS>BOND
     1    1    2 2
     2    1    3 1
     3    1    4 1
     4    1    8 1
     5    4   32 1
     6    5    6 2
     7    5    7 1
     8    5    8 1
     9    5   12 1
    10    7   33 1
    11    9   10 2
    12    9   11 1
    13    9   12 1
    14    9   13 1
    15   13   14 1
    16   14   15 1
    17   14   34 1
    18   14   35 1
    19   15   16 1
    20   15   17 1
    21   15   36 1
    22   16   21 1
    23   17   18 1
    24   17   19 1
    25   17   37 1
    26   18   38 1
    27   19   20 1
    28   19   21 1
    29   19   39 1
    30   20   40 1
    31   21   22 1
    32   21   41 1
    33   22   23 ar
    34   22   31 ar
    35   23   24 ar
    36   23   42 1
    37   24   25 ar
    38   24   46 1
    39   25   26 ar
    40   25   31 ar
    41   26   27 2
    42   26   28 ar
    43   27   43 1
    44   28   29 ar
    45   28   45 1
    46   29   30 ar
    47   29   44 1
    48   30   31 ar
@<TRIPOS>SUBSTRUCTURE
     1 ATP         1 GROUP 0 A     ****
@<TRIPOS>MOLECULE
[[[3,4-dihydroxy-5-(6-imino-7,8-dihydro-1~{H}-purin-8-ylium-9-yl)tetrahydrofuran-2-yl]methoxy-oxido-phosphoryl]oxy-hydroxy-phosphoryl] hydrogen phosphate
   46    48     1     0     0
SMALL
USER_CHARGES

@<TRIPOS>ATOM
      1 PG         -0.7298    0.7305   -7.5022 P.3       1 ATP         1.5595
      2 O1G        -1.8586   -0.2704   -7.6110 O.co2     1 ATP        -0.8438
      3 O2G         0.0956    1.1055   -8.7128 O.co2     1 ATP        -0.8438
      4 O3G        -1.3136    2.0987   -6.8287 O.3       1 ATP        -0.7800
      5 PB          1.2428   -1.0148   -6.1754 P.3       1 ATP         1.9223
      6 O1B         0.5561   -2.3464   -6.2503 O.2       1 ATP        -0.8953
      7 O2B         2.3638   -0.7570   -7.3114 O.3       1 ATP        -0.8165
      8 O3B         0.2700    0.2702   -6.2986 O.3       1 ATP        -0.8247
      9 PA          2.8619    0.6169   -4.3269 P.3       1 ATP         1.6157
     10 O1A         1.9202    1.7974   -4.2284 O.co2     1 ATP        -0.8629
     11 O2A         4.1141    0.6950   -5.1728 O.co2     1 ATP        -0.8629
     12 O3A         2.0115   -0.6976   -4.7905 O.3       1 ATP        -0.8191
     13 O5'         3.2903    0.1346   -2.8241 O.3       1 ATP        -0.5644
     14 C5'         2.2816   -0.2918   -1.9206 C.3       1 ATP         0.2062
     15 C4'         2.7248    0.0226   -0.4980 C.3       1 ATP         0.0971
     16 O4'         2.4697    1.4219   -0.2462 O.3       1 ATP        -0.3662
     17 C3'         1.9404   -0.7419    0.5596 C.3       1 ATP         0.0734
     18 O3'         2.7418   -0.8086    1.7389 O.3       1 ATP        -0.5671
     19 C2'         0.7477    0.1630    0.7858 C.3       1 ATP         0.0745
     20 O2'         0.1373   -0.0577    2.0407 O.3       1 ATP        -0.5794
     21 C1'         1.3733    1.5427    0.6747 C.3       1 ATP         0.3824
     22 N9          0.4520    2.5240    0.1767 N.pl3     1 ATP        -0.4324
     23 C8          0.2216    2.8192   -1.0985 C.ar      1 ATP         0.2662
     24 N7         -0.6906    3.7763   -1.2384 N.pl3     1 ATP        -0.4772
     25 C5         -1.0575    4.1037    0.0366 C.ar      1 ATP        -0.1305
     26 C6         -2.0291    5.0943    0.5330 C.ar      1 ATP         0.7186
     27 N6         -2.7093    5.8371   -0.2800 N.2       1 ATP        -0.8115
     28 N1         -2.1051    5.1136    1.9204 N.pl3     1 ATP        -0.8400
     29 C2         -1.3354    4.2774    2.7129 C.ar      1 ATP         0.6671
     30 N3         -0.4707    3.3945    2.2944 N.2       1 ATP        -0.5806
     31 C4         -0.3734    3.3525    0.9220 C.ar      1 ATP         0.2748
     32 HOG3       -0.6982    2.8499   -6.6899 H         1 ATP         0.4327
     33 HOB2        2.0966   -0.7776   -8.2550 H         1 ATP         0.4701
     34 H5'1        1.3514    0.2330   -2.1577 H         1 ATP         0.0401
     35 H5'2        2.1280   -1.3678   -2.0460 H         1 ATP         0.0401
     36 H4'         3.8044   -0.1397   -0.4040 H         1 ATP         0.1136
     37 H3'         1.6764   -1.7639    0.2728 H         1 ATP         0.0693
     38 HO3'        2.2232   -1.2979    2.3953 H         1 ATP         0.4124
     39 H2'        -0.0011    0.0027    0.0003 H         1 ATP         0.0854
     40 HO2'       -0.6141    0.5574    2.1082 H         1 ATP         0.4367
     41 H1'         1.7826    1.9024    1.6451 H         1 ATP         0.1343
     42 H8          0.7125    2.3429   -1.9292 H         1 ATP         0.3302
     43 HN62       -3.3217    6.4517    0.2629 H         1 ATP         0.4160
     44 H2         -1.5188    4.4223    3.7890 H         1 ATP         0.0756
     45 H45        -2.7470    5.7627    2.3665 H         1 ATP         0.4587
     46 H46        -1.0305    4.1680   -2.1054 H         1 ATP         0.5254
@<TRIPOS>BOND
     1    1    2 2
     2    1    3 1
     3    1    4 1
     4    1    8 1
     5    4   32 1
     6    5    6 2
     7    5    7 1
     8    5    8 1
     9    5   12 1
    10    7   33 1
    11    9   10 2
    12    9   11 1
    13    9   12 1
    14    9   13 1
    15   13   14 1
    16   14   15 1
    17   14   34 1
    18   14   35 1
    19   15   16 1
    20   15   17 1
    21   15   36 1
    22   16   21 1
    23   17   18 1
    24   17   19 1
    25   17   37 1
    26   18   38 1
    27   19   20 1
    28   19   21 1
    29   19   39 1
    30   20   40 1
    31   21   22 1
    32   21   41 1
    33   22   23 ar
    34   22   31 ar
    35   23   24 ar
    36   23   42 1
    37   24   25 ar
    38   24   46 1
    39   25   26 ar
    40   25   31 ar
    41   26   27 2
    42   26   28 ar
    43   27   43 1
    44   28   29 ar
    45   28   45 1
    46   29   30 ar
    47   29   44 1
    48   30   31 ar
@<TRIPOS>SUBSTRUCTURE
     1 ATP         1 GROUP 0 A     ****
@<TRIPOS>MOLECULE
[[[3,4-dihydroxy-5-(6-imino-7,8-dihydro-1~{H}-purin-8-ylium-9-yl)tetrahydrofuran-2-yl]methoxy-oxido-phosphoryl]oxy-hydroxy-phosphoryl] hydrogen phosphate
   46    48     1     0     0
SMALL
USER_CHARGES

@<TRIPOS>ATOM
      1 PG         -1.2889   -1.2302   -7.1013 P.3       1 ATP         1.5595
      2 O1G        -0.7823   -0.2926   -8.1746 O.co2     1 ATP        -0.8438
      3 O2G        -2.6106   -0.9786   -6.4105 O.co2     1 ATP        -0.8438
      4 O3G        -1.2986   -2.7485   -7.7020 O.3       1 ATP        -0.7800
      5 PB          1.4238   -1.8510   -6.1246 P.3       1 ATP         1.9223
      6 O1B         1.6543   -3.2027   -6.7329 O.2       1 ATP        -0.8953
      7 O2B         2.0893   -0.6157   -6.9275 O.3       1 ATP        -0.8165
      8 O3B        -0.1264   -1.4186   -5.9730 O.3       1 ATP        -0.8247
      9 PA          1.5543   -2.4556   -3.2404 P.3       1 ATP         1.6157
     10 O1A         2.0068   -3.8946   -3.3602 O.co2     1 ATP        -0.8629
     11 O2A         0.1179   -2.1223   -2.9006 O.co2     1 ATP        -0.8629
     12 O3A         1.9540   -1.6623   -4.6104 O.3       1 ATP        -0.8191
     13 O5'         2.5245   -1.6648   -2.1878 O.3       1 ATP        -0.5644
     14 C5'         2.2816   -0.2918   -1.9206 C.3       1 ATP         0.2062
     15 C4'         2.7248    0.0226   -0.4980 C.3       1 ATP         0.0971
     16 O4'         2.4697    1.4219   -0.2462 O.3       1 ATP        -0.3662
     17 C3'         1.9404   -0.7419    0.5596 C.3       1 ATP         0.0734
     18 O3'         2.7418   -0.8086    1.7389 O.3       1 ATP        -0.5671
     19 C2'         0.7477    0.1630    0.7858 C.3       1 ATP         0.0745
     20 O2'         0.1373   -0.0577    2.0407 O.3       1 ATP        -0.5794
     21 C1'         1.3733    1.5427    0.6747 C.3       1 ATP         0.3824
     22 N9          0.4520    2.5240    0.1767 N.pl3     1 ATP        -0.4324
     23 C8          0.2216    2.8192   -1.0985 C.ar      1 ATP         0.2662
     24 N7         -0.6906    3.7763   -1.2384 N.pl3     1 ATP        -0.4772
     25 C5         -1.0575    4.1037    0.0366 C.ar      1 ATP        -0.1305
     26 C6         -2.0291    5.0943    0.5330 C.ar      1 ATP         0.7186
     27 N6         -2.7093    5.8371   -0.2800 N.2       1 ATP        -0.8115
     28 N1         -2.1051    5.1136    1.9204 N.pl3     1 ATP        -0.8400
     29 C2         -1.3354    4.2774    2.7129 C.ar      1 ATP         0.6671
     30 N3         -0.4707    3.3945    2.2944 N.2       1 ATP        -0.5806
     31 C4         -0.3734    3.3525    0.9220 C.ar      1 ATP         0.2748
     32 HOG3       -1.6044   -3.4780   -7.1219 H         1 ATP         0.4327
     33 HOB2        1.8184   -0.4522   -7.8560 H         1 ATP         0.4701
     34 H5'1        2.8432    0.3119   -2.6398 H         1 ATP         0.0401
     35 H5'2        1.2128   -0.0927   -2.0428 H         1 ATP         0.0401
     36 H4'         3.8044   -0.1397   -0.4040 H         1 ATP         0.1136
     37 H3'         1.6764   -1.7639    0.2728 H         1 ATP         0.0693
     38 HO3'        2.2232   -1.2979    2.3953 H         1 ATP         0.4124
     39 H2'        -0.0011    0.0027    0.0003 H         1 ATP         0.0854
     40 HO2'       -0.6141    0.5574    2.1082 H         1 ATP         0.4367
     41 H1'         1.7826    1.9024    1.6451 H         1 ATP         0.1343
     42 H8          0.7125    2.3429   -1.9292 H         1 ATP         0.3302
     43 HN62       -3.3217    6.4517    0.2629 H         1 ATP         0.4160
     44 H2         -1.5188    4.4223    3.7890 H         1 ATP         0.0756
     45 H45        -2.7470    5.7627    2.3665 H         1 ATP         0.4587
     46 H46        -1.0305    4.1680   -2.1054 H         1 ATP         0.5254
@<TRIPOS>BOND
     1    1    2 2
     2    1    3 1
     3    1    4 1
     4    1    8 1
     5    4   32 1
     6    5    6 2
     7    5    7 1
     8    5    8 1
     9    5   12 1
    10    7   33 1
    11    9   10 2
    12    9   11 1
    13    9   12 1
    14    9   13 1
    15   13   14 1
    16   14   15 1
    17   14   34 1
    18   14   35 1
    19   15   16 1
    20   15   17 1
    21   15   36 1
    22   16   21 1
    23   17   18 1
    24   17   19 1
    25   17   37 1
    26   18   38 1
    27   19   20 1
    28   19   21 1
    29   19   39 1
    30   20   40 1
    31   21   22 1
    32   21   41 1
    33   22   23 ar
    34   22   31 ar
    35   23   24 ar
    36   23   42 1
    37   24   25 ar
    38   24   46 1
    39   25   26 ar
    40   25   31 ar
    41   26   27 2
    42   26   28 ar
    43   27   43 1
    44   28   29 ar
    45   28   45 1
    46   29   30 ar
    47   29   44 1
    48   30   31 ar
@<TRIPOS>SUBSTRUCTURE
     1 ATP         1 GROUP 0 A     ****
@<TRIPOS>MOLECULE
[[[3,4-dihydroxy-5-(6-imino-7,8-dihydro-1~{H}-purin-8-ylium-9-yl)tetrahydrofuran-2-yl]methoxy-oxido-phosphoryl]oxy-hydroxy-phosphoryl] hydrogen phosphate
   46    48     1     0     0
SMALL
USER_CHARGES

@<TRIPOS>ATOM
      1 PG         -2.1537   -1.2509   -6.2886 P.3       1 ATP         1.5595
      2 O1G        -2.3031   -2.5044   -7.1218 O.co2     1 ATP        -0.8438
      3 O2G        -2.2189    0.1187   -6.9269 O.co2     1 ATP        -0.8438
      4 O3G        -3.2383   -1.3067   -5.0693 O.3       1 ATP        -0.7800
      5 PB          0.7629   -1.3788   -5.8701 P.3       1 ATP         1.9223
      6 O1B         1.1439   -2.5014   -6.7894 O.2       1 ATP        -0.8953
      7 O2B         1.0005    0.1053   -6.4655 O.3       1 ATP        -0.8165
      8 O3B        -0.7858   -1.3624   -5.4074 O.3       1 ATP        -0.8247
      9 PA          1.5543   -2.4556   -3.2404 P.3       1 ATP         1.6157
     10 O1A         2.2585   -3.6986   -3.7394 O.co2     1 ATP        -0.8629
     11 O2A         0.1705   -2.5413   -2.6342 O.co2     1 ATP        -0.8629
     12 O3A         1.5194   -1.3517   -4.4431 O.3       1 ATP        -0.8191
     13 O5'         2.5245   -1.6648   -2.1878 O.3       1 ATP        -0.5644
     14 C5'         2.2816   -0.2918   -1.9206 C.3       1 ATP         0.2062
     15 C4'         2.7248    0.0226   -0.4980 C.3       1 ATP         0.0971
     16 O4'         2.4697    1.4219   -0.2462 O.3       1 ATP        -0.3662
     17 C3'         1.9404   -0.7419    0.5596 C.3       1 ATP         0.0734
     18 O3'         2.7418   -0.8086    1.7389 O.3       1 ATP        -0.5671
     19 C2'         0.7477    0.1630    0.7858 C.3       1 ATP         0.0745
     20 O2'         0.1373   -0.0577    2.0407 O.3       1 ATP        -0.5794
     21 C1'         1.3733    1.5427    0.6747 C.3       1 ATP         0.3824
     22 N9          0.4520    2.5240    0.1767 N.pl3     1 ATP        -0.4324
     23 C8          0.2216    2.8192   -1.0985 C.ar      1 ATP         0.2662
     24 N7         -0.6906    3.7763   -1.2384 N.pl3     1 ATP        -0.4772
     25 C5         -1.0575    4.1037    0.0366 C.ar      1 ATP        -0.1305
     26 C6         -2.0291    5.0943    0.5330 C.ar      1 ATP         0.7186
     27 N6         -2.7093    5.8371   -0.2800 N.2       1 ATP        -0.8115
     28 N1         -2.1051    5.1136    1.9204 N.pl3     1 ATP        -0.8400
     29 C2         -1.3354    4.2774    2.7129 C.ar      1 ATP         0.6671
     30 N3         -0.4707    3.3945    2.2944 N.2       1 ATP        -0.5806
     31 C4         -0.3734    3.3525    0.9220 C.ar      1 ATP         0.2748
     32 HOG3       -3.2667   -0.5588   -4.4352 H         1 ATP         0.4327
     33 HOB2        0.5322    0.3678   -7.2865 H         1 ATP         0.4701
     34 H5'1        2.8432    0.3119   -2.6398 H         1 ATP         0.0401
     35 H5'2        1.2128   -0.0927   -2.0428 H         1 ATP         0.0401
     36 H4'         3.8044   -0.1397   -0.4040 H         1 ATP         0.1136
     37 H3'         1.6764   -1.7639    0.2728 H         1 ATP         0.0693
     38 HO3'        2.2232   -1.2979    2.3953 H         1 ATP         0.4124
     39 H2'        -0.0011    0.0027    0.0003 H         1 ATP         0.0854
     40 HO2'       -0.1563   -0.9855    2.0596 H         1 ATP         0.4367
     41 H1'         1.7826    1.9024    1.6451 H         1 ATP         0.1343
     42 H8          0.7125    2.3429   -1.9292 H         1 ATP         0.3302
     43 HN62       -3.3217    6.4517    0.2629 H         1 ATP         0.4160
     44 H2         -1.5188    4.4223    3.7890 H         1 ATP         0.0756
     45 H45        -2.7470    5.7627    2.3665 H         1 ATP         0.4587
     46 H46        -1.0305    4.1680   -2.1054 H         1 ATP         0.5254
@<TRIPOS>BOND
     1    1    2 2
     2    1    3 1
     3    1    4 1
     4    1    8 1
     5    4   32 1
     6    5    6 2
     7    5    7 1
     8    5    8 1
     9    5   12 1
    10    7   33 1
    11    9   10 2
    12    9   11 1
    13    9   12 1
    14    9   13 1
    15   13   14 1
    16   14   15 1
    17   14   34 1
    18   14   35 1
    19   15   16 1
    20   15   17 1
    21   15   36 1
    22   16   21 1
    23   17   18 1
    24   17   19 1
    25   17   37 1
    26   18   38 1
    27   19   20 1
    28   19   21 1
    29   19   39 1
    30   20   40 1
    31   21   22 1
    32   21   41 1
    33   22   23 ar
    34   22   31 ar
    35   23   24 ar
    36   23   42 1
    37   24   25 ar
    38   24   46 1
    39   25   26 ar
    40   25   31 ar
    41   26   27 2
    42   26   28 ar
    43   27   43 1
    44   28   29 ar
    45   28   45 1
    46   29   30 ar
    47   29   44 1
    48   30   31 ar
@<TRIPOS>SUBSTRUCTURE
     1 ATP         1 GROUP 0 A     ****
@<TRIPOS>MOLECULE
[[[3,4-dihydroxy-5-(6-imino-7,8-dihydro-1~{H}-purin-8-ylium-9-yl)tetrahydrofuran-2-yl]methoxy-oxido-phosphoryl]oxy-hydroxy-phosphoryl] hydrogen phosphate
   46    48     1     0     0
SMALL
USER_CHARGES

@<TRIPOS>ATOM
      1 PG         -0.6470    0.7461   -5.7049 P.3       1 ATP         1.5595
      2 O1G        -1.5198    1.0651   -6.8983 O.co2     1 ATP        -0.8438
      3 O2G         0.7721    1.2622   -5.6202 O.co2     1 ATP        -0.8438
      4 O3G        -1.4415    1.1887   -4.3488 O.3       1 ATP        -0.7800
      5 PB         -0.0120   -1.7534   -4.2743 P.3       1 ATP         1.9223
      6 O1B        -0.5531   -1.4565   -2.9070 O.2       1 ATP        -0.8953
      7 O2B        -0.2161   -3.2766   -4.7762 O.3       1 ATP        -0.8165
      8 O3B        -0.6407   -0.8680   -5.4716 O.3       1 ATP        -0.8247
      9 PA          2.8603   -2.1314   -3.7189 P.3       1 ATP         1.6157
     10 O1A         4.1108   -1.4269   -4.1982 O.co2     1 ATP        -0.8629
     11 O2A         2.7468   -3.6387   -3.7889 O.co2     1 ATP        -0.8629
     12 O3A         1.5677   -1.4844   -4.4784 O.3       1 ATP        -0.8191
     13 O5'         2.5245   -1.6648   -2.1878 O.3       1 ATP        -0.5644
     14 C5'         2.2816   -0.2918   -1.9206 C.3       1 ATP         0.2062
     15 C4'         2.7248    0.0226   -0.4980 C.3       1 ATP         0.0971
     16 O4'         2.4697    1.4219   -0.2462 O.3       1 ATP        -0.3662
     17 C3'         1.9404   -0.7419    0.5596 C.3       1 ATP         0.0734
     18 O3'         2.7418   -0.8086    1.7389 O.3       1 ATP        -0.5671
     19 C2'         0.7477    0.1630    0.7858 C.3       1 ATP         0.0745
     20 O2'         0.1373   -0.0577    2.0407 O.3       1 ATP        -0.5794
     21 C1'         1.3733    1.5427    0.6747 C.3       1 ATP         0.3824
     22 N9          0.4520    2.5240    0.1767 N.pl3     1 ATP        -0.4324
     23 C8          0.2216    2.8192   -1.0985 C.ar      1 ATP         0.2662
     24 N7         -0.6906    3.7763   -1.2384 N.pl3     1 ATP        -0.4772
     25 C5         -1.0575    4.1037    0.0366 C.ar      1 ATP        -0.1305
     26 C6         -2.0291    5.0943    0.5330 C.ar      1 ATP         0.7186
     27 N6         -2.7093    5.8371   -0.2800 N.2       1 ATP        -0.8115
     28 N1         -2.1051    5.1136    1.9204 N.pl3     1 ATP        -0.8400
     29 C2         -1.3354    4.2774    2.7129 C.ar      1 ATP         0.6671
     30 N3         -0.4707    3.3945    2.2944 N.2       1 ATP        -0.5806
     31 C4         -0.3734    3.3525    0.9220 C.ar      1 ATP         0.2748
     32 HOG3       -1.0031    1.0451   -3.4832 H         1 ATP         0.4327
     33 HOB2       -1.1268   -3.6327   -4.8534 H         1 ATP         0.4701
     34 H5'1        2.8432    0.3119   -2.6398 H         1 ATP         0.0401
     35 H5'2        1.2128   -0.0927   -2.0428 H         1 ATP         0.0401
     36 H4'         3.8044   -0.1397   -0.4040 H         1 ATP         0.1136
     37 H3'         1.6764   -1.7639    0.2728 H         1 ATP         0.0693
     38 HO3'        2.2232   -1.2979    2.3953 H         1 ATP         0.4124
     39 H2'        -0.0011    0.0027    0.0003 H         1 ATP         0.0854
     40 HO2'       -0.6141    0.5574    2.1082 H         1 ATP         0.4367
     41 H1'         1.7826    1.9024    1.6451 H         1 ATP         0.1343
     42 H8          0.7125    2.3429   -1.9292 H         1 ATP         0.3302
     43 HN62       -3.3217    6.4517    0.2629 H         1 ATP         0.4160
     44 H2         -1.5188    4.4223    3.7890 H         1 ATP         0.0756
     45 H45        -2.7470    5.7627    2.3665 H         1 ATP         0.4587
     46 H46        -1.0305    4.1680   -2.1054 H         1 ATP         0.5254
@<TRIPOS>BOND
     1    1    2 2
     2    1    3 1
     3    1    4 1
     4    1    8 1
     5    4   32 1
     6    5    6 2
     7    5    7 1
     8    5    8 1
     9    5   12 1
    10    7   33 1
    11    9   10 2
    12    9   11 1
    13    9   12 1
    14    9   13 1
    15   13   14 1
    16   14   15 1
    17   14   34 1
    18   14   35 1
    19   15   16 1
    20   15   17 1
    21   15   36 1
    22   16   21 1
    23   17   18 1
    24   17   19 1
    25   17   37 1
    26   18   38 1
    27   19   20 1
    28   19   21 1
    29   19   39 1
    30   20   40 1
    31   21   22 1
    32   21   41 1
    33   22   23 ar
    34   22   31 ar
    35   23   24 ar
    36   23   42 1
    37   24   25 ar
    38   24   46 1
    39   25   26 ar
    40   25   31 ar
    41   26   27 2
    42   26   28 ar
    43   27   43 1
    44   28   29 ar
    45   28   45 1
    46   29   30 ar
    47   29   44 1
    48   30   31 ar
@<TRIPOS>SUBSTRUCTURE
     1 ATP         1 GROUP 0 A     ****
@<TRIPOS>MOLECULE
[[[3,4-dihydroxy-5-(6-imino-7,8-dihydro-1~{H}-purin-8-ylium-9-yl)tetrahydrofuran-2-yl]methoxy-oxido-phosphoryl]oxy-hydroxy-phosphoryl] hydrogen phosphate
   46    48     1     0     0
SMALL
USER_CHARGES

@<TRIPOS>ATOM
      1 PG         -1.5056   -0.2069   -7.3412 P.3       1 ATP         1.5595
      2 O1G        -2.7489    0.4156   -6.7460 O.co2     1 ATP        -0.8438
      3 O2G        -1.5481   -1.5847   -7.9635 O.co2     1 ATP        -0.8438
      4 O3G        -0.8749    0.8342   -8.4295 O.3       1 ATP        -0.7800
      5 PB          1.2564   -0.5402   -6.3622 P.3       1 ATP         1.9223
      6 O1B         1.5400   -1.9595   -6.7566 O.2       1 ATP        -0.8953
      7 O2B         1.8409    0.5809   -7.3698 O.3       1 ATP        -0.8165
      8 O3B        -0.3095   -0.1604   -6.2333 O.3       1 ATP        -0.8247
      9 PA          3.3342   -0.0516   -4.3262 P.3       1 ATP         1.6157
     10 O1A         4.1296    0.9783   -5.0986 O.co2     1 ATP        -0.8629
     11 O2A         3.8297   -1.4758   -4.1998 O.co2     1 ATP        -0.8629
     12 O3A         1.8112   -0.0892   -4.9136 O.3       1 ATP        -0.8191
     13 O5'         3.0213    0.5153   -2.8245 O.3       1 ATP        -0.5644
     14 C5'         2.2816   -0.2918   -1.9206 C.3       1 ATP         0.2062
     15 C4'         2.7248    0.0226   -0.4980 C.3       1 ATP         0.0971
     16 O4'         2.4697    1.4219   -0.2462 O.3       1 ATP        -0.3662
     17 C3'         1.9404   -0.7419    0.5596 C.3       1 ATP         0.0734
     18 O3'         2.7418   -0.8086    1.7389 O.3       1 ATP        -0.5671
     19 C2'         0.7477    0.1630    0.7858 C.3       1 ATP         0.0745
     20 O2'         0.1373   -0.0577    2.0407 O.3       1 ATP        -0.5794
     21 C1'         1.3733    1.5427    0.6747 C.3       1 ATP         0.3824
     22 N9          0.4520    2.5240    0.1767 N.pl3     1 ATP        -0.4324
     23 C8          0.2216    2.8192   -1.0985 C.ar      1 ATP         0.2662
     24 N7         -0.6906    3.7763   -1.2384 N.pl3     1 ATP        -0.4772
     25 C5         -1.0575    4.1037    0.0366 C.ar      1 ATP        -0.1305
     26 C6         -2.0291    5.0943    0.5330 C.ar      1 ATP         0.7186
     27 N6         -2.7093    5.8371   -0.2800 N.2       1 ATP        -0.8115
     28 N1         -2.1051    5.1136    1.9204 N.pl3     1 ATP        -0.8400
     29 C2         -1.3354    4.2774    2.7129 C.ar      1 ATP         0.6671
     30 N3         -0.4707    3.3945    2.2944 N.2       1 ATP        -0.5806
     31 C4         -0.3734    3.3525    0.9220 C.ar      1 ATP         0.2748
     32 HOG3       -0.0582    0.5733   -8.9061 H         1 ATP         0.4327
     33 HOB2        2.8084    0.6195   -7.5269 H         1 ATP         0.4701
     34 H5'1        1.2163   -0.0770   -2.0471 H         1 ATP         0.0401
     35 H5'2        2.4655   -1.3443   -2.1563 H         1 ATP         0.0401
     36 H4'         3.8044   -0.1397   -0.4040 H         1 ATP         0.1136
     37 H3'         1.6764   -1.7639    0.2728 H         1 ATP         0.0693
     38 HO3'        2.2232   -1.2979    2.3953 H         1 ATP         0.4124
     39 H2'        -0.0011    0.0027    0.0003 H         1 ATP         0.0854
     40 HO2'       -0.6141    0.5574    2.1082 H         1 ATP         0.4367
     41 H1'         1.7826    1.9024    1.6451 H         1 ATP         0.1343
     42 H8          0.7125    2.3429   -1.9292 H         1 ATP         0.3302
     43 HN62       -3.3217    6.4517    0.2629 H         1 ATP         0.4160
     44 H2         -1.5188    4.4223    3.7890 H         1 ATP         0.0756
     45 H45        -2.7470    5.7627    2.3665 H         1 ATP         0.4587
     46 H46        -1.0305    4.1680   -2.1054 H         1 ATP         0.5254
@<TRIPOS>BOND
     1    1    2 2
     2    1    3 1
     3    1    4 1
     4    1    8 1
     5    4   32 1
     6    5    6 2
     7    5    7 1
     8    5    8 1
     9    5   12 1
    10    7   33 1
    11    9   10 2
    12    9   11 1
    13    9   12 1
    14    9   13 1
    15   13   14 1
    16   14   15 1
    17   14   34 1
    18   14   35 1
    19   15   16 1
    20   15   17 1
    21   15   36 1
    22   16   21 1
    23   17   18 1
    24   17   19 1
    25   17   37 1
    26   18   38 1
    27   19   20 1
    28   19   21 1
    29   19   39 1
    30   20   40 1
    31   21   22 1
    32   21   41 1
    33   22   23 ar
    34   22   31 ar
    35   23   24 ar
    36   23   42 1
    37   24   25 ar
    38   24   46 1
    39   25   26 ar
    40   25   31 ar
    41   26   27 2
    42   26   28 ar
    43   27   43 1
    44   28   29 ar
    45   28   45 1
    46   29   30 ar
    47   29   44 1
    48   30   31 ar
@<TRIPOS>SUBSTRUCTURE
     1 ATP         1 GROUP 0 A     ****
@<TRIPOS>MOLECULE
[[[3,4-dihydroxy-5-(6-imino-7,8-dihydro-1~{H}-purin-8-ylium-9-yl)tetrahydrofuran-2-yl]methoxy-oxido-phosphoryl]oxy-hydroxy-phosphoryl] hydrogen phosphate
   46    48     1     0     0
SMALL
USER_CHARGES

@<TRIPOS>ATOM
      1 PG          1.0581   -3.8207   -5.5836 P.3       1 ATP         1.5595
      2 O1G         0.0111   -2.7495   -5.3741 O.co2     1 ATP        -0.8438
      3 O2G         1.3398   -4.8517   -4.5135 O.co2     1 ATP        -0.8438
      4 O3G         0.7301   -4.5999   -6.9806 O.3       1 ATP        -0.7800
      5 PB          3.4507   -2.1424   -5.1873 P.3       1 ATP         1.9223
      6 O1B         4.0254   -2.7386   -3.9364 O.2       1 ATP        -0.8953
      7 O2B         4.5398   -1.6724   -6.2856 O.3       1 ATP        -0.8165
      8 O3B         2.4601   -3.1108   -6.0202 O.3       1 ATP        -0.8247
      9 PA          2.8619    0.6169   -4.3269 P.3       1 ATP         1.6157
     10 O1A         1.5881    1.4304   -4.2516 O.co2     1 ATP        -0.8629
     11 O2A         4.0919    1.1681   -5.0146 O.co2     1 ATP        -0.8629
     12 O3A         2.5186   -0.8394   -4.9806 O.3       1 ATP        -0.8191
     13 O5'         3.2903    0.1346   -2.8241 O.3       1 ATP        -0.5644
     14 C5'         2.2816   -0.2918   -1.9206 C.3       1 ATP         0.2062
     15 C4'         2.7248    0.0226   -0.4980 C.3       1 ATP         0.0971
     16 O4'         2.4697    1.4219   -0.2462 O.3       1 ATP        -0.3662
     17 C3'         1.9404   -0.7419    0.5596 C.3       1 ATP         0.0734
     18 O3'         2.7418   -0.8086    1.7389 O.3       1 ATP        -0.5671
     19 C2'         0.7477    0.1630    0.7858 C.3       1 ATP         0.0745
     20 O2'         0.1373   -0.0577    2.0407 O.3       1 ATP        -0.5794
     21 C1'         1.3733    1.5427    0.6747 C.3       1 ATP         0.3824
     22 N9          0.4520    2.5240    0.1767 N.pl3     1 ATP        -0.4324
     23 C8          0.2216    2.8192   -1.0985 C.ar      1 ATP         0.2662
     24 N7         -0.6906    3.7763   -1.2384 N.pl3     1 ATP        -0.4772
     25 C5         -1.0575    4.1037    0.0366 C.ar      1 ATP        -0.1305
     26 C6         -2.0291    5.0943    0.5330 C.ar      1 ATP         0.7186
     27 N6         -2.7093    5.8371   -0.2800 N.2       1 ATP        -0.8115
     28 N1         -2.1051    5.1136    1.9204 N.pl3     1 ATP        -0.8400
     29 C2         -1.3354    4.2774    2.7129 C.ar      1 ATP         0.6671
     30 N3         -0.4707    3.3945    2.2944 N.2       1 ATP        -0.5806
     31 C4         -0.3734    3.3525    0.9220 C.ar      1 ATP         0.2748
     32 HOG3        1.3242   -5.3292   -7.2588 H         1 ATP         0.4327
     33 HOB2        5.1991   -0.9895   -6.0380 H         1 ATP         0.4701
     34 H5'1        1.3514    0.2330   -2.1577 H         1 ATP         0.0401
     35 H5'2        2.1280   -1.3678   -2.0460 H         1 ATP         0.0401
     36 H4'         3.8044   -0.1397   -0.4040 H         1 ATP         0.1136
     37 H3'         1.6764   -1.7639    0.2728 H         1 ATP         0.0693
     38 HO3'        2.2232   -1.2979    2.3953 H         1 ATP         0.4124
     39 H2'        -0.0011    0.0027    0.0003 H         1 ATP         0.0854
     40 HO2'       -0.1563   -0.9855    2.0596 H         1 ATP         0.4367
     41 H1'         1.7826    1.9024    1.6451 H         1 ATP         0.1343
     42 H8          0.7125    2.3429   -1.9292 H         1 ATP         0.3302
     43 HN62       -3.3217    6.4517    0.2629 H         1 ATP         0.4160
     44 H2         -1.5188    4.4223    3.7890 H         1 ATP         0.0756
     45 H45        -2.7470    5.7627    2.3665 H         1 ATP         0.4587
     46 H46        -1.0305    4.1680   -2.1054 H         1 ATP         0.5254
@<TRIPOS>BOND
     1    1    2 2
     2    1    3 1
     3    1    4 1
     4    1    8 1
     5    4   32 1
     6    5    6 2
     7    5    7 1
     8    5    8 1
     9    5   12 1
    10    7   33 1
    11    9   10 2
    12    9   11 1
    13    9   12 1
    14    9   13 1
    15   13   14 1
    16   14   15 1
    17   14   34 1
    18   14   35 1
    19   15   16 1
    20   15   17 1
    21   15   36 1
    22   16   21 1
    23   17   18 1
    24   17   19 1
    25   17   37 1
    26   18   38 1
    27   19   20 1
    28   19   21 1
    29   19   39 1
    30   20   40 1
    31   21   22 1
    32   21   41 1
    33   22   23 ar
    34   22   31 ar
    35   23   24 ar
    36   23   42 1
    37   24   25 ar
    38   24   46 1
    39   25   26 ar
    40   25   31 ar
    41   26   27 2
    42   26   28 ar
    43   27   43 1
    44   28   29 ar
    45   28   45 1
    46   29   30 ar
    47   29   44 1
    48   30   31 ar
@<TRIPOS>SUBSTRUCTURE
     1 ATP         1 GROUP 0 A     ****
@<TRIPOS>MOLECULE
[[[3,4-dihydroxy-5-(6-imino-7,8-dihydro-1~{H}-purin-8-ylium-9-yl)tetrahydrofuran-2-yl]methoxy-oxido-phosphoryl]oxy-hydroxy-phosphoryl] hydrogen phosphate
   46    48     1     0     0
SMALL
USER_CHARGES

@<TRIPOS>ATOM
      1 PG          0.6503   -0.0301   -6.8843 P.3       1 ATP         1.5595
      2 O1G         1.9357    0.7181   -6.6091 O.co2     1 ATP        -0.8438
      3 O2G        -0.6632    0.4416   -6.3015 O.co2     1 ATP        -0.8438
      4 O3G         0.4754   -0.1828   -8.5005 O.3       1 ATP        -0.7800
      5 PB          1.1104   -2.3177   -5.0807 P.3       1 ATP         1.9223
      6 O1B         0.0188   -2.1214   -4.0707 O.2       1 ATP        -0.8953
      7 O2B         1.4152   -3.8569   -5.4699 O.3       1 ATP        -0.8165
      8 O3B         0.8642   -1.6029   -6.5095 O.3       1 ATP        -0.8247
      9 PA          3.5300   -2.0728   -3.4114 P.3       1 ATP         1.6157
     10 O1A         4.7115   -1.1274   -3.4299 O.co2     1 ATP        -0.8629
     11 O2A         3.7389   -3.5710   -3.3716 O.co2     1 ATP        -0.8629
     12 O3A         2.5573   -1.7245   -4.6758 O.3       1 ATP        -0.8191
     13 O5'         2.5245   -1.6648   -2.1878 O.3       1 ATP        -0.5644
     14 C5'         2.2816   -0.2918   -1.9206 C.3       1 ATP         0.2062
     15 C4'         2.7248    0.0226   -0.4980 C.3       1 ATP         0.0971
     16 O4'         2.4697    1.4219   -0.2462 O.3       1 ATP        -0.3662
     17 C3'         1.9404   -0.7419    0.5596 C.3       1 ATP         0.0734
     18 O3'         2.7418   -0.8086    1.7389 O.3       1 ATP        -0.5671
     19 C2'         0.7477    0.1630    0.7858 C.3       1 ATP         0.0745
     20 O2'         0.1373   -0.0577    2.0407 O.3       1 ATP        -0.5794
     21 C1'         1.3733    1.5427    0.6747 C.3       1 ATP         0.3824
     22 N9          0.4520    2.5240    0.1767 N.pl3     1 ATP        -0.4324
     23 C8          0.2216    2.8192   -1.0985 C.ar      1 ATP         0.2662
     24 N7         -0.6906    3.7763   -1.2384 N.pl3     1 ATP        -0.4772
     25 C5         -1.0575    4.1037    0.0366 C.ar      1 ATP        -0.1305
     26 C6         -2.0291    5.0943    0.5330 C.ar      1 ATP         0.7186
     27 N6         -2.7093    5.8371   -0.2800 N.2       1 ATP        -0.8115
     28 N1         -2.1051    5.1136    1.9204 N.pl3     1 ATP        -0.8400
     29 C2         -1.3354    4.2774    2.7129 C.ar      1 ATP         0.6671
     30 N3         -0.4707    3.3945    2.2944 N.2       1 ATP        -0.5806
     31 C4         -0.3734    3.3525    0.9220 C.ar      1 ATP         0.2748
     32 HOG3       -0.3169   -0.6495   -8.8422 H         1 ATP         0.4327
     33 HOB2        1.6981   -4.4776   -4.7649 H         1 ATP         0.4701
     34 H5'1        2.8432    0.3119   -2.6398 H         1 ATP         0.0401
     35 H5'2        1.2128   -0.0927   -2.0428 H         1 ATP         0.0401
     36 H4'         3.8044   -0.1397   -0.4040 H         1 ATP         0.1136
     37 H3'         1.6764   -1.7639    0.2728 H         1 ATP         0.0693
     38 HO3'        2.2232   -1.2979    2.3953 H         1 ATP         0.4124
     39 H2'        -0.0011    0.0027    0.0003 H         1 ATP         0.0854
     40 HO2'       -0.6141    0.5574    2.1082 H         1 ATP         0.4367
     41 H1'         1.7826    1.9024    1.6451 H         1 ATP         0.1343
     42 H8          0.7125    2.3429   -1.9292 H         1 ATP         0.3302
     43 HN62       -3.3217    6.4517    0.2629 H         1 ATP         0.4160
     44 H2         -1.5188    4.4223    3.7890 H         1 ATP         0.0756
     45 H45        -2.7470    5.7627    2.3665 H         1 ATP         0.4587
     46 H46        -1.0305    4.1680   -2.1054 H         1 ATP         0.5254
@<TRIPOS>BOND
     1    1    2 2
     2    1    3 1
     3    1    4 1
     4    1    8 1
     5    4   32 1
     6    5    6 2
     7    5    7 1
     8    5    8 1
     9    5   12 1
    10    7   33 1
    11    9   10 2
    12    9   11 1
    13    9   12 1
    14    9   13 1
    15   13   14 1
    16   14   15 1
    17   14   34 1
    18   14   35 1
    19   15   16 1
    20   15   17 1
    21   15   36 1
    22   16   21 1
    23   17   18 1
    24   17   19 1
    25   17   37 1
    26   18   38 1
    27   19   20 1
    28   19   21 1
    29   19   39 1
    30   20   40 1
    31   21   22 1
    32   21   41 1
    33   22   23 ar
    34   22   31 ar
    35   23   24 ar
    36   23   42 1
    37   24   25 ar
    38   24   46 1
    39   25   26 ar
    40   25   31 ar
    41   26   27 2
    42   26   28 ar
    43   27   43 1
    44   28   29 ar
    45   28   45 1
    46   29   30 ar
    47   29   44 1
    48   30   31 ar
@<TRIPOS>SUBSTRUCTURE
     1 ATP         1 GROUP 0 A     ****
@<TRIPOS>MOLECULE
[[[3,4-dihydroxy-5-(6-imino-7,8-dihydro-1~{H}-purin-8-ylium-9-yl)tetrahydrofuran-2-yl]methoxy-oxido-phosphoryl]oxy-hydroxy-phosphoryl] hydrogen phosphate
   46    48     1     0     0
SMALL
USER_CHARGES

@<TRIPOS>ATOM
      1 PG         -3.3584   -3.3204   -2.5446 P.3       1 ATP         1.5595
      2 O1G        -3.6586   -2.7961   -1.1580 O.co2     1 ATP        -0.8438
      3 O2G        -3.4529   -4.7978   -2.8539 O.co2     1 ATP        -0.8438
      4 O3G        -4.2814   -2.5060   -3.6176 O.3       1 ATP        -0.7800
      5 PB         -0.4192   -3.1020   -2.4410 P.3       1 ATP         1.9223
      6 O1B        -0.1995   -2.7581   -0.9975 O.2       1 ATP        -0.8953
      7 O2B        -0.2038   -4.6601   -2.8147 O.3       1 ATP        -0.8165
      8 O3B        -1.8951   -2.7718   -3.0114 O.3       1 ATP        -0.8247
      9 PA          2.1371   -2.2715   -3.6563 P.3       1 ATP         1.6157
     10 O1A         2.4976   -1.2664   -4.7285 O.co2     1 ATP        -0.8629
     11 O2A         2.6455   -3.6950   -3.7283 O.co2     1 ATP        -0.8629
     12 O3A         0.5123   -2.3150   -3.5004 O.3       1 ATP        -0.8191
     13 O5'         2.5245   -1.6648   -2.1878 O.3       1 ATP        -0.5644
     14 C5'         2.2816   -0.2918   -1.9206 C.3       1 ATP         0.2062
     15 C4'         2.7248    0.0226   -0.4980 C.3       1 ATP         0.0971
     16 O4'         2.4697    1.4219   -0.2462 O.3       1 ATP        -0.3662
     17 C3'         1.9404   -0.7419    0.5596 C.3       1 ATP         0.0734
     18 O3'         2.7418   -0.8086    1.7389 O.3       1 ATP        -0.5671
     19 C2'         0.7477    0.1630    0.7858 C.3       1 ATP         0.0745
     20 O2'         0.1373   -0.0577    2.0407 O.3       1 ATP        -0.5794
     21 C1'         1.3733    1.5427    0.6747 C.3       1 ATP         0.3824
     22 N9          0.4520    2.5240    0.1767 N.pl3     1 ATP        -0.4324
     23 C8         -0.2004    2.4829   -0.9804 C.ar      1 ATP         0.2662
     24 N7         -0.9830    3.5431   -1.1568 N.pl3     1 ATP        -0.4772
     25 C5         -0.8095    4.3012   -0.0331 C.ar      1 ATP        -0.1305
     26 C6         -1.4065    5.5904    0.3585 C.ar      1 ATP         0.7186
     27 N6         -2.2501    6.2030   -0.4084 N.2       1 ATP        -0.8115
     28 N1         -0.9585    6.0272    1.5994 N.pl3     1 ATP        -0.8400
     29 C2         -0.0508    5.3009    2.3532 C.ar      1 ATP         0.6671
     30 N3          0.4890    4.1592    2.0257 N.2       1 ATP        -0.5806
     31 C4          0.0637    3.7006    0.7995 C.ar      1 ATP         0.2748
     32 HOG3       -4.2014   -2.7326   -4.5686 H         1 ATP         0.4327
     33 HOB2        0.6735   -5.0693   -2.6557 H         1 ATP         0.4701
     34 H5'1        2.8432    0.3119   -2.6398 H         1 ATP         0.0401
     35 H5'2        1.2128   -0.0927   -2.0428 H         1 ATP         0.0401
     36 H4'         3.8044   -0.1397   -0.4040 H         1 ATP         0.1136
     37 H3'         1.6764   -1.7639    0.2728 H         1 ATP         0.0693
     38 HO3'        2.2232   -1.2979    2.3953 H         1 ATP         0.4124
     39 H2'        -0.0011    0.0027    0.0003 H         1 ATP         0.0854
     40 HO2'       -0.6141    0.5574    2.1082 H         1 ATP         0.4367
     41 H1'         1.7826    1.9024    1.6451 H         1 ATP         0.1343
     42 H8         -0.1116    1.6863   -1.6984 H         1 ATP         0.3302
     43 HN62       -2.5420    7.0730    0.0447 H         1 ATP         0.4160
     44 H2          0.1969    5.7893    3.3086 H         1 ATP         0.0756
     45 H45        -1.3097    6.9080    1.9642 H         1 ATP         0.4587
     46 H46        -1.5735    3.7351   -1.9538 H         1 ATP         0.5254
@<TRIPOS>BOND
     1    1    2 2
     2    1    3 1
     3    1    4 1
     4    1    8 1
     5    4   32 1
     6    5    6 2
     7    5    7 1
     8    5    8 1
     9    5   12 1
    10    7   33 1
    11    9   10 2
    12    9   11 1
    13    9   12 1
    14    9   13 1
    15   13   14 1
    16   14   15 1
    17   14   34 1
    18   14   35 1
    19   15   16 1
    20   15   17 1
    21   15   36 1
    22   16   21 1
    23   17   18 1
    24   17   19 1
    25   17   37 1
    26   18   38 1
    27   19   20 1
    28   19   21 1
    29   19   39 1
    30   20   40 1
    31   21   22 1
    32   21   41 1
    33   22   23 ar
    34   22   31 ar
    35   23   24 ar
    36   23   42 1
    37   24   25 ar
    38   24   46 1
    39   25   26 ar
    40   25   31 ar
    41   26   27 2
    42   26   28 ar
    43   27   43 1
    44   28   29 ar
    45   28   45 1
    46   29   30 ar
    47   29   44 1
    48   30   31 ar
@<TRIPOS>SUBSTRUCTURE
     1 ATP         1 GROUP 0 A     ****
@<TRIPOS>MOLECULE
[[[3,4-dihydroxy-5-(6-imino-7,8-dihydro-1~{H}-purin-8-ylium-9-yl)tetrahydrofuran-2-yl]methoxy-oxido-phosphoryl]oxy-hydroxy-phosphoryl] hydrogen phosphate
   46    48     1     0     0
SMALL
USER_CHARGES

@<TRIPOS>ATOM
      1 PG          0.5799   -2.2783   -7.7880 P.3       1 ATP         1.5595
      2 O1G        -0.7234   -1.5171   -7.8861 O.co2     1 ATP        -0.8438
      3 O2G         0.6073   -3.7875   -7.8831 O.co2     1 ATP        -0.8438
      4 O3G         1.6194   -1.6704   -8.8908 O.3       1 ATP        -0.7800
      5 PB          2.8428   -2.1789   -5.8992 P.3       1 ATP         1.9223
      6 O1B         3.1015   -3.6389   -5.6716 O.2       1 ATP        -0.8953
      7 O2B         3.8205   -1.4690   -6.9733 O.3       1 ATP        -0.8165
      8 O3B         1.3605   -1.8165   -6.4324 O.3       1 ATP        -0.8247
      9 PA          2.7406    0.3767   -4.4296 P.3       1 ATP         1.6157
     10 O1A         1.2942    0.7140   -4.7197 O.co2     1 ATP        -0.8629
     11 O2A         3.8609    1.0770   -5.1673 O.co2     1 ATP        -0.8629
     12 O3A         2.9483   -1.2346   -4.5928 O.3       1 ATP        -0.8191
     13 O5'         3.0213    0.5153   -2.8245 O.3       1 ATP        -0.5644
     14 C5'         2.2816   -0.2918   -1.9206 C.3       1 ATP         0.2062
     15 C4'         2.7248    0.0226   -0.4980 C.3       1 ATP         0.0971
     16 O4'         2.4697    1.4219   -0.2462 O.3       1 ATP        -0.3662
     17 C3'         1.9404   -0.7419    0.5596 C.3       1 ATP         0.0734
     18 O3'         2.7418   -0.8086    1.7389 O.3       1 ATP        -0.5671
     19 C2'         0.7477    0.1630    0.7858 C.3       1 ATP         0.0745
     20 O2'         0.1373   -0.0577    2.0407 O.3       1 ATP        -0.5794
     21 C1'         1.3733    1.5427    0.6747 C.3       1 ATP         0.3824
     22 N9          0.4520    2.5240    0.1767 N.pl3     1 ATP        -0.4324
     23 C8          0.2216    2.8192   -1.0985 C.ar      1 ATP         0.2662
     24 N7         -0.6906    3.7763   -1.2384 N.pl3     1 ATP        -0.4772
     25 C5         -1.0575    4.1037    0.0366 C.ar      1 ATP        -0.1305
     26 C6         -2.0291    5.0943    0.5330 C.ar      1 ATP         0.7186
     27 N6         -2.7093    5.8371   -0.2800 N.2       1 ATP        -0.8115
     28 N1         -2.1051    5.1136    1.9204 N.pl3     1 ATP        -0.8400
     29 C2         -1.3354    4.2774    2.7129 C.ar      1 ATP         0.6671
     30 N3         -0.4707    3.3945    2.2944 N.2       1 ATP        -0.5806
     31 C4         -0.3734    3.3525    0.9220 C.ar      1 ATP         0.2748
     32 HOG3        2.5166   -2.0620   -8.9520 H         1 ATP         0.4327
     33 HOB2        4.7869   -1.4643   -6.8048 H         1 ATP         0.4701
     34 H5'1        1.2163   -0.0770   -2.0471 H         1 ATP         0.0401
     35 H5'2        2.4655   -1.3443   -2.1563 H         1 ATP         0.0401
     36 H4'         3.8044   -0.1397   -0.4040 H         1 ATP         0.1136
     37 H3'         1.6764   -1.7639    0.2728 H         1 ATP         0.0693
     38 HO3'        3.5554   -1.2733    1.4914 H         1 ATP         0.4124
     39 H2'        -0.0011    0.0027    0.0003 H         1 ATP         0.0854
     40 HO2'       -0.1563   -0.9855    2.0596 H         1 ATP         0.4367
     41 H1'         1.7826    1.9024    1.6451 H         1 ATP         0.1343
     42 H8          0.7125    2.3429   -1.9292 H         1 ATP         0.3302
     43 HN62       -3.3217    6.4517    0.2629 H         1 ATP         0.4160
     44 H2         -1.5188    4.4223    3.7890 H         1 ATP         0.0756
     45 H45        -2.7470    5.7627    2.3665 H         1 ATP         0.4587
     46 H46        -1.0305    4.1680   -2.1054 H         1 ATP         0.5254
@<TRIPOS>BOND
     1    1    2 2
     2    1    3 1
     3    1    4 1
     4    1    8 1
     5    4   32 1
     6    5    6 2
     7    5    7 1
     8    5    8 1
     9    5   12 1
    10    7   33 1
    11    9   10 2
    12    9   11 1
    13    9   12 1
    14    9   13 1
    15   13   14 1
    16   14   15 1
    17   14   34 1
    18   14   35 1
    19   15   16 1
    20   15   17 1
    21   15   36 1
    22   16   21 1
    23   17   18 1
    24   17   19 1
    25   17   37 1
    26   18   38 1
    27   19   20 1
    28   19   21 1
    29   19   39 1
    30   20   40 1
    31   21   22 1
    32   21   41 1
    33   22   23 ar
    34   22   31 ar
    35   23   24 ar
    36   23   42 1
    37   24   25 ar
    38   24   46 1
    39   25   26 ar
    40   25   31 ar
    41   26   27 2
    42   26   28 ar
    43   27   43 1
    44   28   29 ar
    45   28   45 1
    46   29   30 ar
    47   29   44 1
    48   30   31 ar
@<TRIPOS>SUBSTRUCTURE
     1 ATP         1 GROUP 0 A     ****
@<TRIPOS>MOLECULE
[[[3,4-dihydroxy-5-(6-imino-7,8-dihydro-1~{H}-purin-8-ylium-9-yl)tetrahydrofuran-2-yl]methoxy-oxido-phosphoryl]oxy-hydroxy-phosphoryl] hydrogen phosphate
   46    48     1     0     0
SMALL
USER_CHARGES

@<TRIPOS>ATOM
      1 PG          7.1024   -4.3210   -3.9948 P.3       1 ATP         1.5595
      2 O1G         8.3429   -3.9036   -4.7527 O.co2     1 ATP        -0.8438
      3 O2G         6.2692   -5.4962   -4.4554 O.co2     1 ATP        -0.8438
      4 O3G         7.5049   -4.5527   -2.4294 O.3       1 ATP        -0.7800
      5 PB          5.3153   -2.1589   -4.9055 P.3       1 ATP         1.9223
      6 O1B         6.1548   -1.5088   -5.9652 O.2       1 ATP        -0.8953
      7 O2B         4.2005   -3.1936   -5.4534 O.3       1 ATP        -0.8165
      8 O3B         6.1337   -3.0218   -3.8108 O.3       1 ATP        -0.8247
      9 PA          3.3342   -0.0516   -4.3262 P.3       1 ATP         1.6157
     10 O1A         2.1153   -0.7748   -4.8565 O.co2     1 ATP        -0.8629
     11 O2A         3.9830    1.0583   -5.1244 O.co2     1 ATP        -0.8629
     12 O3A         4.4805   -1.1538   -3.9557 O.3       1 ATP        -0.8191
     13 O5'         3.0213    0.5153   -2.8245 O.3       1 ATP        -0.5644
     14 C5'         2.2816   -0.2918   -1.9206 C.3       1 ATP         0.2062
     15 C4'         2.7248    0.0226   -0.4980 C.3       1 ATP         0.0971
     16 O4'         2.4697    1.4219   -0.2462 O.3       1 ATP        -0.3662
     17 C3'         1.9404   -0.7419    0.5596 C.3       1 ATP         0.0734
     18 O3'         2.7418   -0.8086    1.7389 O.3       1 ATP        -0.5671
     19 C2'         0.7477    0.1630    0.7858 C.3       1 ATP         0.0745
     20 O2'         0.1373   -0.0577    2.0407 O.3       1 ATP        -0.5794
     21 C1'         1.3733    1.5427    0.6747 C.3       1 ATP         0.3824
     22 N9          0.4520    2.5240    0.1767 N.pl3     1 ATP        -0.4324
     23 C8         -0.2004    2.4829   -0.9804 C.ar      1 ATP         0.2662
     24 N7         -0.9830    3.5431   -1.1568 N.pl3     1 ATP        -0.4772
     25 C5         -0.8095    4.3012   -0.0331 C.ar      1 ATP        -0.1305
     26 C6         -1.4065    5.5904    0.3585 C.ar      1 ATP         0.7186
     27 N6         -2.2501    6.2030   -0.4084 N.2       1 ATP        -0.8115
     28 N1         -0.9585    6.0272    1.5994 N.pl3     1 ATP        -0.8400
     29 C2         -0.0508    5.3009    2.3532 C.ar      1 ATP         0.6671
     30 N3          0.4890    4.1592    2.0257 N.2       1 ATP        -0.5806
     31 C4          0.0637    3.7006    0.7995 C.ar      1 ATP         0.2748
     32 HOG3        6.8026   -4.8291   -1.8029 H         1 ATP         0.4327
     33 HOB2        4.4916   -3.9761   -5.9684 H         1 ATP         0.4701
     34 H5'1        1.2163   -0.0770   -2.0471 H         1 ATP         0.0401
     35 H5'2        2.4655   -1.3443   -2.1563 H         1 ATP         0.0401
     36 H4'         3.8044   -0.1397   -0.4040 H         1 ATP         0.1136
     37 H3'         1.6764   -1.7639    0.2728 H         1 ATP         0.0693
     38 HO3'        2.2232   -1.2979    2.3953 H         1 ATP         0.4124
     39 H2'        -0.0011    0.0027    0.0003 H         1 ATP         0.0854
     40 HO2'       -0.6141    0.5574    2.1082 H         1 ATP         0.4367
     41 H1'         1.7826    1.9024    1.6451 H         1 ATP         0.1343
     42 H8         -0.1116    1.6863   -1.6984 H         1 ATP         0.3302
     43 HN62       -2.5420    7.0730    0.0447 H         1 ATP         0.4160
     44 H2          0.1969    5.7893    3.3086 H         1 ATP         0.0756
     45 H45        -1.3097    6.9080    1.9642 H         1 ATP         0.4587
     46 H46        -1.5735    3.7351   -1.9538 H         1 ATP         0.5254
@<TRIPOS>BOND
     1    1    2 2
     2    1    3 1
     3    1    4 1
     4    1    8 1
     5    4   32 1
     6    5    6 2
     7    5    7 1
     8    5    8 1
     9    5   12 1
    10    7   33 1
    11    9   10 2
    12    9   11 1
    13    9   12 1
    14    9   13 1
    15   13   14 1
    16   14   15 1
    17   14   34 1
    18   14   35 1
    19   15   16 1
    20   15   17 1
    21   15   36 1
    22   16   21 1
    23   17   18 1
    24   17   19 1
    25   17   37 1
    26   18   38 1
    27   19   20 1
    28   19   21 1
    29   19   39 1
    30   20   40 1
    31   21   22 1
    32   21   41 1
    33   22   23 ar
    34   22   31 ar
    35   23   24 ar
    36   23   42 1
    37   24   25 ar
    38   24   46 1
    39   25   26 ar
    40   25   31 ar
    41   26   27 2
    42   26   28 ar
    43   27   43 1
    44   28   29 ar
    45   28   45 1
    46   29   30 ar
    47   29   44 1
    48   30   31 ar
@<TRIPOS>SUBSTRUCTURE
     1 ATP         1 GROUP 0 A     ****
@<TRIPOS>MOLECULE
[[[3,4-dihydroxy-5-(6-imino-7,8-dihydro-1~{H}-purin-8-ylium-9-yl)tetrahydrofuran-2-yl]methoxy-oxido-phosphoryl]oxy-hydroxy-phosphoryl] hydrogen phosphate
   46    48     1     0     0
SMALL
USER_CHARGES

@<TRIPOS>ATOM
      1 PG          2.0567   -3.7221   -5.8182 P.3       1 ATP         1.5595
      2 O1G         1.3307   -5.0483   -5.7765 O.co2     1 ATP        -0.8438
      3 O2G         3.0717   -3.3583   -4.7576 O.co2     1 ATP        -0.8438
      4 O3G         2.7581   -3.5611   -7.2840 O.3       1 ATP        -0.7800
      5 PB          1.1583   -0.9348   -6.1668 P.3       1 ATP         1.9223
      6 O1B         1.8591   -0.5556   -7.4378 O.2       1 ATP        -0.8953
      7 O2B        -0.3329   -0.3328   -6.0005 O.3       1 ATP        -0.8165
      8 O3B         0.9584   -2.5223   -5.9371 O.3       1 ATP        -0.8247
      9 PA          2.3334    0.9635   -4.2388 P.3       1 ATP         1.6157
     10 O1A         1.0794    1.7628   -3.9589 O.co2     1 ATP        -0.8629
     11 O2A         3.4182    1.5161   -5.1375 O.co2     1 ATP        -0.8629
     12 O3A         1.9049   -0.5092   -4.7989 O.3       1 ATP        -0.8191
     13 O5'         3.0213    0.5153   -2.8245 O.3       1 ATP        -0.5644
     14 C5'         2.2816   -0.2918   -1.9206 C.3       1 ATP         0.2062
     15 C4'         2.7248    0.0226   -0.4980 C.3       1 ATP         0.0971
     16 O4'         2.4697    1.4219   -0.2462 O.3       1 ATP        -0.3662
     17 C3'         1.9404   -0.7419    0.5596 C.3       1 ATP         0.0734
     18 O3'         2.7418   -0.8086    1.7389 O.3       1 ATP        -0.5671
     19 C2'         0.7477    0.1630    0.7858 C.3       1 ATP         0.0745
     20 O2'         0.1373   -0.0577    2.0407 O.3       1 ATP        -0.5794
     21 C1'         1.3733    1.5427    0.6747 C.3       1 ATP         0.3824
     22 N9          0.4520    2.5240    0.1767 N.pl3     1 ATP        -0.4324
     23 C8         -0.2004    2.4829   -0.9804 C.ar      1 ATP         0.2662
     24 N7         -0.9830    3.5431   -1.1568 N.pl3     1 ATP        -0.4772
     25 C5         -0.8095    4.3012   -0.0331 C.ar      1 ATP        -0.1305
     26 C6         -1.4065    5.5904    0.3585 C.ar      1 ATP         0.7186
     27 N6         -2.2501    6.2030   -0.4084 N.2       1 ATP        -0.8115
     28 N1         -0.9585    6.0272    1.5994 N.pl3     1 ATP        -0.8400
     29 C2         -0.0508    5.3009    2.3532 C.ar      1 ATP         0.6671
     30 N3          0.4890    4.1592    2.0257 N.2       1 ATP        -0.5806
     31 C4          0.0637    3.7006    0.7995 C.ar      1 ATP         0.2748
     32 HOG3        3.2712   -2.7459   -7.4688 H         1 ATP         0.4327
     33 HOB2       -0.4542    0.6406   -5.9985 H         1 ATP         0.4701
     34 H5'1        1.2163   -0.0770   -2.0471 H         1 ATP         0.0401
     35 H5'2        2.4655   -1.3443   -2.1563 H         1 ATP         0.0401
     36 H4'         3.8044   -0.1397   -0.4040 H         1 ATP         0.1136
     37 H3'         1.6764   -1.7639    0.2728 H         1 ATP         0.0693
     38 HO3'        2.2232   -1.2979    2.3953 H         1 ATP         0.4124
     39 H2'        -0.0011    0.0027    0.0003 H         1 ATP         0.0854
     40 HO2'       -0.6141    0.5574    2.1082 H         1 ATP         0.4367
     41 H1'         1.7826    1.9024    1.6451 H         1 ATP         0.1343
     42 H8         -0.1116    1.6863   -1.6984 H         1 ATP         0.3302
     43 HN62       -2.5420    7.0730    0.0447 H         1 ATP         0.4160
     44 H2          0.1969    5.7893    3.3086 H         1 ATP         0.0756
     45 H45        -1.3097    6.9080    1.9642 H         1 ATP         0.4587
     46 H46        -1.5735    3.7351   -1.9538 H         1 ATP         0.5254
@<TRIPOS>BOND
     1    1    2 2
     2    1    3 1
     3    1    4 1
     4    1    8 1
     5    4   32 1
     6    5    6 2
     7    5    7 1
     8    5    8 1
     9    5   12 1
    10    7   33 1
    11    9   10 2
    12    9   11 1
    13    9   12 1
    14    9   13 1
    15   13   14 1
    16   14   15 1
    17   14   34 1
    18   14   35 1
    19   15   16 1
    20   15   17 1
    21   15   36 1
    22   16   21 1
    23   17   18 1
    24   17   19 1
    25   17   37 1
    26   18   38 1
    27   19   20 1
    28   19   21 1
    29   19   39 1
    30   20   40 1
    31   21   22 1
    32   21   41 1
    33   22   23 ar
    34   22   31 ar
    35   23   24 ar
    36   23   42 1
    37   24   25 ar
    38   24   46 1
    39   25   26 ar
    40   25   31 ar
    41   26   27 2
    42   26   28 ar
    43   27   43 1
    44   28   29 ar
    45   28   45 1
    46   29   30 ar
    47   29   44 1
    48   30   31 ar
@<TRIPOS>SUBSTRUCTURE
     1 ATP         1 GROUP 0 A     ****
@<TRIPOS>MOLECULE
[[[3,4-dihydroxy-5-(6-imino-7,8-dihydro-1~{H}-purin-8-ylium-9-yl)tetrahydrofuran-2-yl]methoxy-oxido-phosphoryl]oxy-hydroxy-phosphoryl] hydrogen phosphate
   46    48     1     0     0
SMALL
USER_CHARGES

@<TRIPOS>ATOM
      1 PG         -2.5090   -5.2653   -2.9453 P.3       1 ATP         1.5595
      2 O1G        -1.9651   -6.5992   -2.4843 O.co2     1 ATP        -0.8438
      3 O2G        -3.1785   -5.1234   -4.2940 O.co2     1 ATP        -0.8438
      4 O3G        -3.5241   -4.6958   -1.8001 O.3       1 ATP        -0.7800
      5 PB         -1.3859   -2.5393   -3.0177 P.3       1 ATP         1.9223
      6 O1B        -1.8107   -2.0812   -4.3815 O.2       1 ATP        -0.8953
      7 O2B        -2.3203   -2.0287   -1.8013 O.3       1 ATP        -0.8165
      8 O3B        -1.3338   -4.1420   -2.8141 O.3       1 ATP        -0.8247
      9 PA          1.5543   -2.4556   -3.2404 P.3       1 ATP         1.6157
     10 O1A         1.6311   -1.7881   -4.5963 O.co2     1 ATP        -0.8629
     11 O2A         1.8087   -3.9400   -3.0936 O.co2     1 ATP        -0.8629
     12 O3A         0.1063   -2.1149   -2.5672 O.3       1 ATP        -0.8191
     13 O5'         2.5245   -1.6648   -2.1878 O.3       1 ATP        -0.5644
     14 C5'         2.2816   -0.2918   -1.9206 C.3       1 ATP         0.2062
     15 C4'         2.7248    0.0226   -0.4980 C.3       1 ATP         0.0971
     16 O4'         2.4697    1.4219   -0.2462 O.3       1 ATP        -0.3662
     17 C3'         1.9404   -0.7419    0.5596 C.3       1 ATP         0.0734
     18 O3'         2.7418   -0.8086    1.7389 O.3       1 ATP        -0.5671
     19 C2'         0.7477    0.1630    0.7858 C.3       1 ATP         0.0745
     20 O2'         0.1373   -0.0577    2.0407 O.3       1 ATP        -0.5794
     21 C1'         1.3733    1.5427    0.6747 C.3       1 ATP         0.3824
     22 N9          0.4520    2.5240    0.1767 N.pl3     1 ATP        -0.4324
     23 C8          0.2216    2.8192   -1.0985 C.ar      1 ATP         0.2662
     24 N7         -0.6906    3.7763   -1.2384 N.pl3     1 ATP        -0.4772
     25 C5         -1.0575    4.1037    0.0366 C.ar      1 ATP        -0.1305
     26 C6         -2.0291    5.0943    0.5330 C.ar      1 ATP         0.7186
     27 N6         -2.7093    5.8371   -0.2800 N.2       1 ATP        -0.8115
     28 N1         -2.1051    5.1136    1.9204 N.pl3     1 ATP        -0.8400
     29 C2         -1.3354    4.2774    2.7129 C.ar      1 ATP         0.6671
     30 N3         -0.4707    3.3945    2.2944 N.2       1 ATP        -0.5806
     31 C4         -0.3734    3.3525    0.9220 C.ar      1 ATP         0.2748
     32 HOG3       -3.9619   -3.8313   -1.9526 H         1 ATP         0.4327
     33 HOB2       -2.4207   -1.0643   -1.6525 H         1 ATP         0.4701
     34 H5'1        2.8432    0.3119   -2.6398 H         1 ATP         0.0401
     35 H5'2        1.2128   -0.0927   -2.0428 H         1 ATP         0.0401
     36 H4'         3.8044   -0.1397   -0.4040 H         1 ATP         0.1136
     37 H3'         1.6764   -1.7639    0.2728 H         1 ATP         0.0693
     38 HO3'        2.2232   -1.2979    2.3953 H         1 ATP         0.4124
     39 H2'        -0.0011    0.0027    0.0003 H         1 ATP         0.0854
     40 HO2'       -0.6141    0.5574    2.1082 H         1 ATP         0.4367
     41 H1'         1.7826    1.9024    1.6451 H         1 ATP         0.1343
     42 H8          0.7125    2.3429   -1.9292 H         1 ATP         0.3302
     43 HN62       -3.3217    6.4517    0.2629 H         1 ATP         0.4160
     44 H2         -1.5188    4.4223    3.7890 H         1 ATP         0.0756
     45 H45        -2.7470    5.7627    2.3665 H         1 ATP         0.4587
     46 H46        -1.0305    4.1680   -2.1054 H         1 ATP         0.5254
@<TRIPOS>BOND
     1    1    2 2
     2    1    3 1
     3    1    4 1
     4    1    8 1
     5    4   32 1
     6    5    6 2
     7    5    7 1
     8    5    8 1
     9    5   12 1
    10    7   33 1
    11    9   10 2
    12    9   11 1
    13    9   12 1
    14    9   13 1
    15   13   14 1
    16   14   15 1
    17   14   34 1
    18   14   35 1
    19   15   16 1
    20   15   17 1
    21   15   36 1
    22   16   21 1
    23   17   18 1
    24   17   19 1
    25   17   37 1
    26   18   38 1
    27   19   20 1
    28   19   21 1
    29   19   39 1
    30   20   40 1
    31   21   22 1
    32   21   41 1
    33   22   23 ar
    34   22   31 ar
    35   23   24 ar
    36   23   42 1
    37   24   25 ar
    38   24   46 1
    39   25   26 ar
    40   25   31 ar
    41   26   27 2
    42   26   28 ar
    43   27   43 1
    44   28   29 ar
    45   28   45 1
    46   29   30 ar
    47   29   44 1
    48   30   31 ar
@<TRIPOS>SUBSTRUCTURE
     1 ATP         1 GROUP 0 A     ****
@<TRIPOS>MOLECULE
[[[3,4-dihydroxy-5-(6-imino-7,8-dihydro-1~{H}-purin-8-ylium-9-yl)tetrahydrofuran-2-yl]methoxy-oxido-phosphoryl]oxy-hydroxy-phosphoryl] hydrogen phosphate
   46    48     1     0     0
SMALL
USER_CHARGES

@<TRIPOS>ATOM
      1 PG         -0.5296   -3.3160   -6.6863 P.3       1 ATP         1.5595
      2 O1G        -1.6941   -2.4402   -7.0923 O.co2     1 ATP        -0.8438
      3 O2G        -0.7575   -4.6311   -5.9750 O.co2     1 ATP        -0.8438
      4 O3G         0.3948   -3.5924   -8.0035 O.3       1 ATP        -0.7800
      5 PB          1.2428   -1.0148   -6.1754 P.3       1 ATP         1.9223
      6 O1B         2.0964   -1.0202   -7.4090 O.2       1 ATP        -0.8953
      7 O2B         0.0194    0.0419   -6.1931 O.3       1 ATP        -0.8165
      8 O3B         0.5285   -2.4220   -5.8254 O.3       1 ATP        -0.8247
      9 PA          2.8619    0.6169   -4.3269 P.3       1 ATP         1.6157
     10 O1A         1.9202    1.7974   -4.2284 O.co2     1 ATP        -0.8629
     11 O2A         4.1141    0.6950   -5.1728 O.co2     1 ATP        -0.8629
     12 O3A         2.0115   -0.6976   -4.7905 O.3       1 ATP        -0.8191
     13 O5'         3.2903    0.1346   -2.8241 O.3       1 ATP        -0.5644
     14 C5'         2.2816   -0.2918   -1.9206 C.3       1 ATP         0.2062
     15 C4'         2.7248    0.0226   -0.4980 C.3       1 ATP         0.0971
     16 O4'         2.4697    1.4219   -0.2462 O.3       1 ATP        -0.3662
     17 C3'         1.9404   -0.7419    0.5596 C.3       1 ATP         0.0734
     18 O3'         2.7418   -0.8086    1.7389 O.3       1 ATP        -0.5671
     19 C2'         0.7477    0.1630    0.7858 C.3       1 ATP         0.0745
     20 O2'         0.1373   -0.0577    2.0407 O.3       1 ATP        -0.5794
     21 C1'         1.3733    1.5427    0.6747 C.3       1 ATP         0.3824
     22 N9          0.4520    2.5240    0.1767 N.pl3     1 ATP        -0.4324
     23 C8          0.2216    2.8192   -1.0985 C.ar      1 ATP         0.2662
     24 N7         -0.6906    3.7763   -1.2384 N.pl3     1 ATP        -0.4772
     25 C5         -1.0575    4.1037    0.0366 C.ar      1 ATP        -0.1305
     26 C6         -2.0291    5.0943    0.5330 C.ar      1 ATP         0.7186
     27 N6         -2.7093    5.8371   -0.2800 N.2       1 ATP        -0.8115
     28 N1         -2.1051    5.1136    1.9204 N.pl3     1 ATP        -0.8400
     29 C2         -1.3354    4.2774    2.7129 C.ar      1 ATP         0.6671
     30 N3         -0.4707    3.3945    2.2944 N.2       1 ATP        -0.5806
     31 C4         -0.3734    3.3525    0.9220 C.ar      1 ATP         0.2748
     32 HOG3        1.1960   -4.1493   -7.9029 H         1 ATP         0.4327
     33 HOB2        0.2193    0.9976   -6.2872 H         1 ATP         0.4701
     34 H5'1        1.3514    0.2330   -2.1577 H         1 ATP         0.0401
     35 H5'2        2.1280   -1.3678   -2.0460 H         1 ATP         0.0401
     36 H4'         3.8044   -0.1397   -0.4040 H         1 ATP         0.1136
     37 H3'         1.6764   -1.7639    0.2728 H         1 ATP         0.0693
     38 HO3'        2.2232   -1.2979    2.3953 H         1 ATP         0.4124
     39 H2'        -0.0011    0.0027    0.0003 H         1 ATP         0.0854
     40 HO2'       -0.6141    0.5574    2.1082 H         1 ATP         0.4367
     41 H1'         1.7826    1.9024    1.6451 H         1 ATP         0.1343
     42 H8          0.7125    2.3429   -1.9292 H         1 ATP         0.3302
     43 HN62       -3.3217    6.4517    0.2629 H         1 ATP         0.4160
     44 H2         -1.5188    4.4223    3.7890 H         1 ATP         0.0756
     45 H45        -2.7470    5.7627    2.3665 H         1 ATP         0.4587
     46 H46        -1.0305    4.1680   -2.1054 H         1 ATP         0.5254
@<TRIPOS>BOND
     1    1    2 2
     2    1    3 1
     3    1    4 1
     4    1    8 1
     5    4   32 1
     6    5    6 2
     7    5    7 1
     8    5    8 1
     9    5   12 1
    10    7   33 1
    11    9   10 2
    12    9   11 1
    13    9   12 1
    14    9   13 1
    15   13   14 1
    16   14   15 1
    17   14   34 1
    18   14   35 1
    19   15   16 1
    20   15   17 1
    21   15   36 1
    22   16   21 1
    23   17   18 1
    24   17   19 1
    25   17   37 1
    26   18   38 1
    27   19   20 1
    28   19   21 1
    29   19   39 1
    30   20   40 1
    31   21   22 1
    32   21   41 1
    33   22   23 ar
    34   22   31 ar
    35   23   24 ar
    36   23   42 1
    37   24   25 ar
    38   24   46 1
    39   25   26 ar
    40   25   31 ar
    41   26   27 2
    42   26   28 ar
    43   27   43 1
    44   28   29 ar
    45   28   45 1
    46   29   30 ar
    47   29   44 1
    48   30   31 ar
@<TRIPOS>SUBSTRUCTURE
     1 ATP         1 GROUP 0 A     ****
@<TRIPOS>MOLECULE
[[[3,4-dihydroxy-5-(6-imino-7,8-dihydro-1~{H}-purin-8-ylium-9-yl)tetrahydrofuran-2-yl]methoxy-oxido-phosphoryl]oxy-hydroxy-phosphoryl] hydrogen phosphate
   46    48     1     0     0
SMALL
USER_CHARGES

@<TRIPOS>ATOM
      1 PG         -3.9008   -1.5301   -1.8539 P.3       1 ATP         1.5595
      2 O1G        -4.2111   -0.5152   -0.7762 O.co2     1 ATP        -0.8438
      3 O2G        -4.5513   -2.8954   -1.8458 O.co2     1 ATP        -0.8438
      4 O3G        -4.1656   -0.8383   -3.3090 O.3       1 ATP        -0.7800
      5 PB         -1.3859   -2.5393   -3.0177 P.3       1 ATP         1.9223
      6 O1B        -1.6565   -4.0137   -3.0718 O.2       1 ATP        -0.8953
      7 O2B        -1.6122   -1.7494   -4.4100 O.3       1 ATP        -0.8165
      8 O3B        -2.2834   -1.7122   -1.9579 O.3       1 ATP        -0.8247
      9 PA          1.5543   -2.4556   -3.2404 P.3       1 ATP         1.6157
     10 O1A         1.6311   -1.7881   -4.5963 O.co2     1 ATP        -0.8629
     11 O2A         1.8087   -3.9400   -3.0936 O.co2     1 ATP        -0.8629
     12 O3A         0.1063   -2.1149   -2.5672 O.3       1 ATP        -0.8191
     13 O5'         2.5245   -1.6648   -2.1878 O.3       1 ATP        -0.5644
     14 C5'         2.2816   -0.2918   -1.9206 C.3       1 ATP         0.2062
     15 C4'         2.7248    0.0226   -0.4980 C.3       1 ATP         0.0971
     16 O4'         2.4697    1.4219   -0.2462 O.3       1 ATP        -0.3662
     17 C3'         1.9404   -0.7419    0.5596 C.3       1 ATP         0.0734
     18 O3'         2.7418   -0.8086    1.7389 O.3       1 ATP        -0.5671
     19 C2'         0.7477    0.1630    0.7858 C.3       1 ATP         0.0745
     20 O2'         0.1373   -0.0577    2.0407 O.3       1 ATP        -0.5794
     21 C1'         1.3733    1.5427    0.6747 C.3       1 ATP         0.3824
     22 N9          0.4520    2.5240    0.1767 N.pl3     1 ATP        -0.4324
     23 C8          0.2216    2.8192   -1.0985 C.ar      1 ATP         0.2662
     24 N7         -0.6906    3.7763   -1.2384 N.pl3     1 ATP        -0.4772
     25 C5         -1.0575    4.1037    0.0366 C.ar      1 ATP        -0.1305
     26 C6         -2.0291    5.0943    0.5330 C.ar      1 ATP         0.7186
     27 N6         -2.7093    5.8371   -0.2800 N.2       1 ATP        -0.8115
     28 N1         -2.1051    5.1136    1.9204 N.pl3     1 ATP        -0.8400
     29 C2         -1.3354    4.2774    2.7129 C.ar      1 ATP         0.6671
     30 N3         -0.4707    3.3945    2.2944 N.2       1 ATP        -0.5806
     31 C4         -0.3734    3.3525    0.9220 C.ar      1 ATP         0.2748
     32 HOG3       -4.0078   -1.3734   -4.1159 H         1 ATP         0.4327
     33 HOB2       -1.0828   -2.0087   -5.1941 H         1 ATP         0.4701
     34 H5'1        2.8432    0.3119   -2.6398 H         1 ATP         0.0401
     35 H5'2        1.2128   -0.0927   -2.0428 H         1 ATP         0.0401
     36 H4'         3.8044   -0.1397   -0.4040 H         1 ATP         0.1136
     37 H3'         1.6764   -1.7639    0.2728 H         1 ATP         0.0693
     38 HO3'        3.5554   -1.2733    1.4914 H         1 ATP         0.4124
     39 H2'        -0.0011    0.0027    0.0003 H         1 ATP         0.0854
     40 HO2'       -0.1563   -0.9855    2.0596 H         1 ATP         0.4367
     41 H1'         1.7826    1.9024    1.6451 H         1 ATP         0.1343
     42 H8          0.7125    2.3429   -1.9292 H         1 ATP         0.3302
     43 HN62       -3.3217    6.4517    0.2629 H         1 ATP         0.4160
     44 H2         -1.5188    4.4223    3.7890 H         1 ATP         0.0756
     45 H45        -2.7470    5.7627    2.3665 H         1 ATP         0.4587
     46 H46        -1.0305    4.1680   -2.1054 H         1 ATP         0.5254
@<TRIPOS>BOND
     1    1    2 2
     2    1    3 1
     3    1    4 1
     4    1    8 1
     5    4   32 1
     6    5    6 2
     7    5    7 1
     8    5    8 1
     9    5   12 1
    10    7   33 1
    11    9   10 2
    12    9   11 1
    13    9   12 1
    14    9   13 1
    15   13   14 1
    16   14   15 1
    17   14   34 1
    18   14   35 1
    19   15   16 1
    20   15   17 1
    21   15   36 1
    22   16   21 1
    23   17   18 1
    24   17   19 1
    25   17   37 1
    26   18   38 1
    27   19   20 1
    28   19   21 1
    29   19   39 1
    30   20   40 1
    31   21   22 1
    32   21   41 1
    33   22   23 ar
    34   22   31 ar
    35   23   24 ar
    36   23   42 1
    37   24   25 ar
    38   24   46 1
    39   25   26 ar
    40   25   31 ar
    41   26   27 2
    42   26   28 ar
    43   27   43 1
    44   28   29 ar
    45   28   45 1
    46   29   30 ar
    47   29   44 1
    48   30   31 ar
@<TRIPOS>SUBSTRUCTURE
     1 ATP         1 GROUP 0 A     ****
@<TRIPOS>MOLECULE
[[[3,4-dihydroxy-5-(6-imino-7,8-dihydro-1~{H}-purin-8-ylium-9-yl)tetrahydrofuran-2-yl]methoxy-oxido-phosphoryl]oxy-hydroxy-phosphoryl] hydrogen phosphate
   46    48     1     0     0
SMALL
USER_CHARGES

@<TRIPOS>ATOM
      1 PG          5.6423   -3.0273   -1.3945 P.3       1 ATP         1.5595
      2 O1G         7.0639   -2.5717   -1.6374 O.co2     1 ATP        -0.8438
      3 O2G         5.3078   -4.4971   -1.2709 O.co2     1 ATP        -0.8438
      4 O3G         5.0676   -2.2522   -0.0772 O.3       1 ATP        -0.7800
      5 PB          4.5975   -2.5883   -4.1173 P.3       1 ATP         1.9223
      6 O1B         5.8568   -2.2745   -4.8696 O.2       1 ATP        -0.8953
      7 O2B         4.0776   -4.1127   -4.2570 O.3       1 ATP        -0.8165
      8 O3B         4.6724   -2.3539   -2.5197 O.3       1 ATP        -0.8247
      9 PA          3.0673   -0.0858   -4.4292 P.3       1 ATP         1.6157
     10 O1A         1.6266    0.2116   -4.7838 O.co2     1 ATP        -0.8629
     11 O2A         4.2011    0.5980   -5.1618 O.co2     1 ATP        -0.8629
     12 O3A         3.3063   -1.6991   -4.5069 O.3       1 ATP        -0.8191
     13 O5'         3.2903    0.1346   -2.8241 O.3       1 ATP        -0.5644
     14 C5'         2.2816   -0.2918   -1.9206 C.3       1 ATP         0.2062
     15 C4'         2.7248    0.0226   -0.4980 C.3       1 ATP         0.0971
     16 O4'         2.4697    1.4219   -0.2462 O.3       1 ATP        -0.3662
     17 C3'         1.9404   -0.7419    0.5596 C.3       1 ATP         0.0734
     18 O3'         2.7418   -0.8086    1.7389 O.3       1 ATP        -0.5671
     19 C2'         0.7477    0.1630    0.7858 C.3       1 ATP         0.0745
     20 O2'         0.1373   -0.0577    2.0407 O.3       1 ATP        -0.5794
     21 C1'         1.3733    1.5427    0.6747 C.3       1 ATP         0.3824
     22 N9          0.4520    2.5240    0.1767 N.pl3     1 ATP        -0.4324
     23 C8         -0.2004    2.4829   -0.9804 C.ar      1 ATP         0.2662
     24 N7         -0.9830    3.5431   -1.1568 N.pl3     1 ATP        -0.4772
     25 C5         -0.8095    4.3012   -0.0331 C.ar      1 ATP        -0.1305
     26 C6         -1.4065    5.5904    0.3585 C.ar      1 ATP         0.7186
     27 N6         -2.2501    6.2030   -0.4084 N.2       1 ATP        -0.8115
     28 N1         -0.9585    6.0272    1.5994 N.pl3     1 ATP        -0.8400
     29 C2         -0.0508    5.3009    2.3532 C.ar      1 ATP         0.6671
     30 N3          0.4890    4.1592    2.0257 N.2       1 ATP        -0.5806
     31 C4          0.0637    3.7006    0.7995 C.ar      1 ATP         0.2748
     32 HOG3        4.1498   -2.4418    0.2124 H         1 ATP         0.4327
     33 HOB2        4.6613   -4.8423   -3.9584 H         1 ATP         0.4701
     34 H5'1        1.3514    0.2330   -2.1577 H         1 ATP         0.0401
     35 H5'2        2.1280   -1.3678   -2.0460 H         1 ATP         0.0401
     36 H4'         3.8044   -0.1397   -0.4040 H         1 ATP         0.1136
     37 H3'         1.6764   -1.7639    0.2728 H         1 ATP         0.0693
     38 HO3'        2.2232   -1.2979    2.3953 H         1 ATP         0.4124
     39 H2'        -0.0011    0.0027    0.0003 H         1 ATP         0.0854
     40 HO2'       -0.1563   -0.9855    2.0596 H         1 ATP         0.4367
     41 H1'         1.7826    1.9024    1.6451 H         1 ATP         0.1343
     42 H8         -0.1116    1.6863   -1.6984 H         1 ATP         0.3302
     43 HN62       -2.5420    7.0730    0.0447 H         1 ATP         0.4160
     44 H2          0.1969    5.7893    3.3086 H         1 ATP         0.0756
     45 H45        -1.3097    6.9080    1.9642 H         1 ATP         0.4587
     46 H46        -1.5735    3.7351   -1.9538 H         1 ATP         0.5254
@<TRIPOS>BOND
     1    1    2 2
     2    1    3 1
     3    1    4 1
     4    1    8 1
     5    4   32 1
     6    5    6 2
     7    5    7 1
     8    5    8 1
     9    5   12 1
    10    7   33 1
    11    9   10 2
    12    9   11 1
    13    9   12 1
    14    9   13 1
    15   13   14 1
    16   14   15 1
    17   14   34 1
    18   14   35 1
    19   15   16 1
    20   15   17 1
    21   15   36 1
    22   16   21 1
    23   17   18 1
    24   17   19 1
    25   17   37 1
    26   18   38 1
    27   19   20 1
    28   19   21 1
    29   19   39 1
    30   20   40 1
    31   21   22 1
    32   21   41 1
    33   22   23 ar
    34   22   31 ar
    35   23   24 ar
    36   23   42 1
    37   24   25 ar
    38   24   46 1
    39   25   26 ar
    40   25   31 ar
    41   26   27 2
    42   26   28 ar
    43   27   43 1
    44   28   29 ar
    45   28   45 1
    46   29   30 ar
    47   29   44 1
    48   30   31 ar
@<TRIPOS>SUBSTRUCTURE
     1 ATP         1 GROUP 0 A     ****
@<TRIPOS>MOLECULE
[[[3,4-dihydroxy-5-(6-imino-7,8-dihydro-1~{H}-purin-8-ylium-9-yl)tetrahydrofuran-2-yl]methoxy-oxido-phosphoryl]oxy-hydroxy-phosphoryl] hydrogen phosphate
   46    48     1     0     0
SMALL
USER_CHARGES

@<TRIPOS>ATOM
      1 PG         -1.5004   -1.9545   -6.6804 P.3       1 ATP         1.5595
      2 O1G        -1.3349   -3.4342   -6.9462 O.co2     1 ATP        -0.8438
      3 O2G        -1.6876   -0.9768   -7.8191 O.co2     1 ATP        -0.8438
      4 O3G        -2.7233   -1.7525   -5.6174 O.3       1 ATP        -0.7800
      5 PB          1.3127   -1.3309   -6.0520 P.3       1 ATP         1.9223
      6 O1B         1.9887   -2.6203   -6.4136 O.2       1 ATP        -0.8953
      7 O2B         1.3979   -0.1733   -7.1774 O.3       1 ATP        -0.8165
      8 O3B        -0.2690   -1.4458   -5.7397 O.3       1 ATP        -0.8247
      9 PA          3.3342   -0.0516   -4.3262 P.3       1 ATP         1.6157
     10 O1A         3.6725    1.1050   -5.2416 O.co2     1 ATP        -0.8629
     11 O2A         4.2676   -1.2358   -4.1991 O.co2     1 ATP        -0.8629
     12 O3A         1.8482   -0.6092   -4.7096 O.3       1 ATP        -0.8191
     13 O5'         3.0213    0.5153   -2.8245 O.3       1 ATP        -0.5644
     14 C5'         2.2816   -0.2918   -1.9206 C.3       1 ATP         0.2062
     15 C4'         2.7248    0.0226   -0.4980 C.3       1 ATP         0.0971
     16 O4'         2.4697    1.4219   -0.2462 O.3       1 ATP        -0.3662
     17 C3'         1.9404   -0.7419    0.5596 C.3       1 ATP         0.0734
     18 O3'         2.7418   -0.8086    1.7389 O.3       1 ATP        -0.5671
     19 C2'         0.7477    0.1630    0.7858 C.3       1 ATP         0.0745
     20 O2'         0.1373   -0.0577    2.0407 O.3       1 ATP        -0.5794
     21 C1'         1.3733    1.5427    0.6747 C.3       1 ATP         0.3824
     22 N9          0.4520    2.5240    0.1767 N.pl3     1 ATP        -0.4324
     23 C8          0.2216    2.8192   -1.0985 C.ar      1 ATP         0.2662
     24 N7         -0.6906    3.7763   -1.2384 N.pl3     1 ATP        -0.4772
     25 C5         -1.0575    4.1037    0.0366 C.ar      1 ATP        -0.1305
     26 C6         -2.0291    5.0943    0.5330 C.ar      1 ATP         0.7186
     27 N6         -2.7093    5.8371   -0.2800 N.2       1 ATP        -0.8115
     28 N1         -2.1051    5.1136    1.9204 N.pl3     1 ATP        -0.8400
     29 C2         -1.3354    4.2774    2.7129 C.ar      1 ATP         0.6671
     30 N3         -0.4707    3.3945    2.2944 N.2       1 ATP        -0.5806
     31 C4         -0.3734    3.3525    0.9220 C.ar      1 ATP         0.2748
     32 HOG3       -2.9561   -0.8404   -5.3417 H         1 ATP         0.4327
     33 HOB2        1.0141   -0.3442   -8.0638 H         1 ATP         0.4701
     34 H5'1        1.2163   -0.0770   -2.0471 H         1 ATP         0.0401
     35 H5'2        2.4655   -1.3443   -2.1563 H         1 ATP         0.0401
     36 H4'         3.8044   -0.1397   -0.4040 H         1 ATP         0.1136
     37 H3'         1.6764   -1.7639    0.2728 H         1 ATP         0.0693
     38 HO3'        2.2232   -1.2979    2.3953 H         1 ATP         0.4124
     39 H2'        -0.0011    0.0027    0.0003 H         1 ATP         0.0854
     40 HO2'       -0.1563   -0.9855    2.0596 H         1 ATP         0.4367
     41 H1'         1.7826    1.9024    1.6451 H         1 ATP         0.1343
     42 H8          0.7125    2.3429   -1.9292 H         1 ATP         0.3302
     43 HN62       -3.3217    6.4517    0.2629 H         1 ATP         0.4160
     44 H2         -1.5188    4.4223    3.7890 H         1 ATP         0.0756
     45 H45        -2.7470    5.7627    2.3665 H         1 ATP         0.4587
     46 H46        -1.0305    4.1680   -2.1054 H         1 ATP         0.5254
@<TRIPOS>BOND
     1    1    2 2
     2    1    3 1
     3    1    4 1
     4    1    8 1
     5    4   32 1
     6    5    6 2
     7    5    7 1
     8    5    8 1
     9    5   12 1
    10    7   33 1
    11    9   10 2
    12    9   11 1
    13    9   12 1
    14    9   13 1
    15   13   14 1
    16   14   15 1
    17   14   34 1
    18   14   35 1
    19   15   16 1
    20   15   17 1
    21   15   36 1
    22   16   21 1
    23   17   18 1
    24   17   19 1
    25   17   37 1
    26   18   38 1
    27   19   20 1
    28   19   21 1
    29   19   39 1
    30   20   40 1
    31   21   22 1
    32   21   41 1
    33   22   23 ar
    34   22   31 ar
    35   23   24 ar
    36   23   42 1
    37   24   25 ar
    38   24   46 1
    39   25   26 ar
    40   25   31 ar
    41   26   27 2
    42   26   28 ar
    43   27   43 1
    44   28   29 ar
    45   28   45 1
    46   29   30 ar
    47   29   44 1
    48   30   31 ar
@<TRIPOS>SUBSTRUCTURE
     1 ATP         1 GROUP 0 A     ****
@<TRIPOS>MOLECULE
[[[3,4-dihydroxy-5-(6-imino-7,8-dihydro-1~{H}-purin-8-ylium-9-yl)tetrahydrofuran-2-yl]methoxy-oxido-phosphoryl]oxy-hydroxy-phosphoryl] hydrogen phosphate
   46    48     1     0     0
SMALL
USER_CHARGES

@<TRIPOS>ATOM
      1 PG          4.9471   -5.4664   -4.6575 P.3       1 ATP         1.5595
      2 O1G         5.2485   -5.9120   -3.2439 O.co2     1 ATP        -0.8438
      3 O2G         6.0476   -5.3588   -5.6895 O.co2     1 ATP        -0.8438
      4 O3G         3.7634   -6.4167   -5.2592 O.3       1 ATP        -0.7800
      5 PB          4.5975   -2.5883   -4.1173 P.3       1 ATP         1.9223
      6 O1B         5.0431   -2.5001   -2.6877 O.2       1 ATP        -0.8953
      7 O2B         5.7097   -2.1598   -5.2095 O.3       1 ATP        -0.8165
      8 O3B         4.1286   -4.0567   -4.6038 O.3       1 ATP        -0.8247
      9 PA          3.0673   -0.0858   -4.4292 P.3       1 ATP         1.6157
     10 O1A         1.6266    0.2116   -4.7838 O.co2     1 ATP        -0.8629
     11 O2A         4.2011    0.5980   -5.1618 O.co2     1 ATP        -0.8629
     12 O3A         3.3063   -1.6991   -4.5069 O.3       1 ATP        -0.8191
     13 O5'         3.2903    0.1346   -2.8241 O.3       1 ATP        -0.5644
     14 C5'         2.2816   -0.2918   -1.9206 C.3       1 ATP         0.2062
     15 C4'         2.7248    0.0226   -0.4980 C.3       1 ATP         0.0971
     16 O4'         2.4697    1.4219   -0.2462 O.3       1 ATP        -0.3662
     17 C3'         1.9404   -0.7419    0.5596 C.3       1 ATP         0.0734
     18 O3'         2.7418   -0.8086    1.7389 O.3       1 ATP        -0.5671
     19 C2'         0.7477    0.1630    0.7858 C.3       1 ATP         0.0745
     20 O2'         0.1373   -0.0577    2.0407 O.3       1 ATP        -0.5794
     21 C1'         1.3733    1.5427    0.6747 C.3       1 ATP         0.3824
     22 N9          0.4520    2.5240    0.1767 N.pl3     1 ATP        -0.4324
     23 C8         -0.2004    2.4829   -0.9804 C.ar      1 ATP         0.2662
     24 N7         -0.9830    3.5431   -1.1568 N.pl3     1 ATP        -0.4772
     25 C5         -0.8095    4.3012   -0.0331 C.ar      1 ATP        -0.1305
     26 C6         -1.4065    5.5904    0.3585 C.ar      1 ATP         0.7186
     27 N6         -2.2501    6.2030   -0.4084 N.2       1 ATP        -0.8115
     28 N1         -0.9585    6.0272    1.5994 N.pl3     1 ATP        -0.8400
     29 C2         -0.0508    5.3009    2.3532 C.ar      1 ATP         0.6671
     30 N3          0.4890    4.1592    2.0257 N.2       1 ATP        -0.5806
     31 C4          0.0637    3.7006    0.7995 C.ar      1 ATP         0.2748
     32 HOG3        3.4531   -6.2522   -6.1751 H         1 ATP         0.4327
     33 HOB2        6.5552   -2.6560   -5.2456 H         1 ATP         0.4701
     34 H5'1        1.3514    0.2330   -2.1577 H         1 ATP         0.0401
     35 H5'2        2.1280   -1.3678   -2.0460 H         1 ATP         0.0401
     36 H4'         3.8044   -0.1397   -0.4040 H         1 ATP         0.1136
     37 H3'         1.6764   -1.7639    0.2728 H         1 ATP         0.0693
     38 HO3'        2.2232   -1.2979    2.3953 H         1 ATP         0.4124
     39 H2'        -0.0011    0.0027    0.0003 H         1 ATP         0.0854
     40 HO2'       -0.1563   -0.9855    2.0596 H         1 ATP         0.4367
     41 H1'         1.7826    1.9024    1.6451 H         1 ATP         0.1343
     42 H8         -0.1116    1.6863   -1.6984 H         1 ATP         0.3302
     43 HN62       -2.5420    7.0730    0.0447 H         1 ATP         0.4160
     44 H2          0.1969    5.7893    3.3086 H         1 ATP         0.0756
     45 H45        -1.3097    6.9080    1.9642 H         1 ATP         0.4587
     46 H46        -1.5735    3.7351   -1.9538 H         1 ATP         0.5254
@<TRIPOS>BOND
     1    1    2 2
     2    1    3 1
     3    1    4 1
     4    1    8 1
     5    4   32 1
     6    5    6 2
     7    5    7 1
     8    5    8 1
     9    5   12 1
    10    7   33 1
    11    9   10 2
    12    9   11 1
    13    9   12 1
    14    9   13 1
    15   13   14 1
    16   14   15 1
    17   14   34 1
    18   14   35 1
    19   15   16 1
    20   15   17 1
    21   15   36 1
    22   16   21 1
    23   17   18 1
    24   17   19 1
    25   17   37 1
    26   18   38 1
    27   19   20 1
    28   19   21 1
    29   19   39 1
    30   20   40 1
    31   21   22 1
    32   21   41 1
    33   22   23 ar
    34   22   31 ar
    35   23   24 ar
    36   23   42 1
    37   24   25 ar
    38   24   46 1
    39   25   26 ar
    40   25   31 ar
    41   26   27 2
    42   26   28 ar
    43   27   43 1
    44   28   29 ar
    45   28   45 1
    46   29   30 ar
    47   29   44 1
    48   30   31 ar
@<TRIPOS>SUBSTRUCTURE
     1 ATP         1 GROUP 0 A     ****
@<TRIPOS>MOLECULE
[[[3,4-dihydroxy-5-(6-imino-7,8-dihydro-1~{H}-purin-8-ylium-9-yl)tetrahydrofuran-2-yl]methoxy-oxido-phosphoryl]oxy-hydroxy-phosphoryl] hydrogen phosphate
   46    48     1     0     0
SMALL
USER_CHARGES

@<TRIPOS>ATOM
      1 PG          4.9782    4.6664   -4.1420 P.3       1 ATP         1.5595
      2 O1G         5.5880    5.2359   -5.4035 O.co2     1 ATP        -0.8438
      3 O2G         5.5404    3.4162   -3.5031 O.co2     1 ATP        -0.8438
      4 O3G         4.9247    5.8459   -3.0141 O.3       1 ATP        -0.7800
      5 PB          2.2098    4.0482   -3.3347 P.3       1 ATP         1.9223
      6 O1B         2.0323    4.9666   -2.1619 O.2       1 ATP        -0.8953
      7 O2B         0.9053    3.8760   -4.2739 O.3       1 ATP        -0.8165
      8 O3B         3.3752    4.4717   -4.3716 O.3       1 ATP        -0.8247
      9 PA          2.9230    1.2546   -3.9578 P.3       1 ATP         1.6157
     10 O1A         4.1492    1.5455   -4.7953 O.co2     1 ATP        -0.8629
     11 O2A         1.6175    0.8553   -4.6106 O.co2     1 ATP        -0.8629
     12 O3A         2.6378    2.5313   -2.9807 O.3       1 ATP        -0.8191
     13 O5'         3.2903    0.1346   -2.8241 O.3       1 ATP        -0.5644
     14 C5'         2.2816   -0.2918   -1.9206 C.3       1 ATP         0.2062
     15 C4'         2.7248    0.0226   -0.4980 C.3       1 ATP         0.0971
     16 O4'         2.4697    1.4219   -0.2462 O.3       1 ATP        -0.3662
     17 C3'         1.9404   -0.7419    0.5596 C.3       1 ATP         0.0734
     18 O3'         2.7418   -0.8086    1.7389 O.3       1 ATP        -0.5671
     19 C2'         0.7477    0.1630    0.7858 C.3       1 ATP         0.0745
     20 O2'         0.1373   -0.0577    2.0407 O.3       1 ATP        -0.5794
     21 C1'         1.3733    1.5427    0.6747 C.3       1 ATP         0.3824
     22 N9          0.4520    2.5240    0.1767 N.pl3     1 ATP        -0.4324
     23 C8         -0.2004    2.4829   -0.9804 C.ar      1 ATP         0.2662
     24 N7         -0.9830    3.5431   -1.1568 N.pl3     1 ATP        -0.4772
     25 C5         -0.8095    4.3012   -0.0331 C.ar      1 ATP        -0.1305
     26 C6         -1.4065    5.5904    0.3585 C.ar      1 ATP         0.7186
     27 N6         -2.2501    6.2030   -0.4084 N.2       1 ATP        -0.8115
     28 N1         -0.9585    6.0272    1.5994 N.pl3     1 ATP        -0.8400
     29 C2         -0.0508    5.3009    2.3532 C.ar      1 ATP         0.6671
     30 N3          0.4890    4.1592    2.0257 N.2       1 ATP        -0.5806
     31 C4          0.0637    3.7006    0.7995 C.ar      1 ATP         0.2748
     32 HOG3        4.5520    5.6319   -2.1323 H         1 ATP         0.4327
     33 HOB2        0.0805    3.5200   -3.8799 H         1 ATP         0.4701
     34 H5'1        1.3514    0.2330   -2.1577 H         1 ATP         0.0401
     35 H5'2        2.1280   -1.3678   -2.0460 H         1 ATP         0.0401
     36 H4'         3.8044   -0.1397   -0.4040 H         1 ATP         0.1136
     37 H3'         1.6764   -1.7639    0.2728 H         1 ATP         0.0693
     38 HO3'        2.2232   -1.2979    2.3953 H         1 ATP         0.4124
     39 H2'        -0.0011    0.0027    0.0003 H         1 ATP         0.0854
     40 HO2'       -0.6141    0.5574    2.1082 H         1 ATP         0.4367
     41 H1'         1.7826    1.9024    1.6451 H         1 ATP         0.1343
     42 H8         -0.1116    1.6863   -1.6984 H         1 ATP         0.3302
     43 HN62       -2.5420    7.0730    0.0447 H         1 ATP         0.4160
     44 H2          0.1969    5.7893    3.3086 H         1 ATP         0.0756
     45 H45        -1.3097    6.9080    1.9642 H         1 ATP         0.4587
     46 H46        -1.5735    3.7351   -1.9538 H         1 ATP         0.5254
@<TRIPOS>BOND
     1    1    2 2
     2    1    3 1
     3    1    4 1
     4    1    8 1
     5    4   32 1
     6    5    6 2
     7    5    7 1
     8    5    8 1
     9    5   12 1
    10    7   33 1
    11    9   10 2
    12    9   11 1
    13    9   12 1
    14    9   13 1
    15   13   14 1
    16   14   15 1
    17   14   34 1
    18   14   35 1
    19   15   16 1
    20   15   17 1
    21   15   36 1
    22   16   21 1
    23   17   18 1
    24   17   19 1
    25   17   37 1
    26   18   38 1
    27   19   20 1
    28   19   21 1
    29   19   39 1
    30   20   40 1
    31   21   22 1
    32   21   41 1
    33   22   23 ar
    34   22   31 ar
    35   23   24 ar
    36   23   42 1
    37   24   25 ar
    38   24   46 1
    39   25   26 ar
    40   25   31 ar
    41   26   27 2
    42   26   28 ar
    43   27   43 1
    44   28   29 ar
    45   28   45 1
    46   29   30 ar
    47   29   44 1
    48   30   31 ar
@<TRIPOS>SUBSTRUCTURE
     1 ATP         1 GROUP 0 A     ****
@<TRIPOS>MOLECULE
[[[3,4-dihydroxy-5-(6-imino-7,8-dihydro-1~{H}-purin-8-ylium-9-yl)tetrahydrofuran-2-yl]methoxy-oxido-phosphoryl]oxy-hydroxy-phosphoryl] hydrogen phosphate
   46    48     1     0     0
SMALL
USER_CHARGES

@<TRIPOS>ATOM
      1 PG          1.4639   -2.6662   -7.9091 P.3       1 ATP         1.5595
      2 O1G         2.1346   -2.0180   -9.0998 O.co2     1 ATP        -0.8438
      3 O2G        -0.0433   -2.6943   -7.7865 O.co2     1 ATP        -0.8438
      4 O3G         2.0242   -4.1932   -7.7664 O.3       1 ATP        -0.7800
      5 PB          3.6349   -1.9126   -6.0608 P.3       1 ATP         1.9223
      6 O1B         4.3762   -3.2103   -5.9315 O.2       1 ATP        -0.8953
      7 O2B         4.2757   -0.8584   -7.1056 O.3       1 ATP        -0.8165
      8 O3B         2.0972   -2.0421   -6.5418 O.3       1 ATP        -0.8247
      9 PA          2.7406    0.3767   -4.4296 P.3       1 ATP         1.6157
     10 O1A         1.2546    0.2225   -4.6703 O.co2     1 ATP        -0.8629
     11 O2A         3.5320    1.4518   -5.1421 O.co2     1 ATP        -0.8629
     12 O3A         3.4692   -1.0595   -4.6990 O.3       1 ATP        -0.8191
     13 O5'         3.0213    0.5153   -2.8245 O.3       1 ATP        -0.5644
     14 C5'         2.2816   -0.2918   -1.9206 C.3       1 ATP         0.2062
     15 C4'         2.7248    0.0226   -0.4980 C.3       1 ATP         0.0971
     16 O4'         2.4697    1.4219   -0.2462 O.3       1 ATP        -0.3662
     17 C3'         1.9404   -0.7419    0.5596 C.3       1 ATP         0.0734
     18 O3'         2.7418   -0.8086    1.7389 O.3       1 ATP        -0.5671
     19 C2'         0.7477    0.1630    0.7858 C.3       1 ATP         0.0745
     20 O2'         0.1373   -0.0577    2.0407 O.3       1 ATP        -0.5794
     21 C1'         1.3733    1.5427    0.6747 C.3       1 ATP         0.3824
     22 N9          0.4520    2.5240    0.1767 N.pl3     1 ATP        -0.4324
     23 C8         -0.2004    2.4829   -0.9804 C.ar      1 ATP         0.2662
     24 N7         -0.9830    3.5431   -1.1568 N.pl3     1 ATP        -0.4772
     25 C5         -0.8095    4.3012   -0.0331 C.ar      1 ATP        -0.1305
     26 C6         -1.4065    5.5904    0.3585 C.ar      1 ATP         0.7186
     27 N6         -2.2501    6.2030   -0.4084 N.2       1 ATP        -0.8115
     28 N1         -0.9585    6.0272    1.5994 N.pl3     1 ATP        -0.8400
     29 C2         -0.0508    5.3009    2.3532 C.ar      1 ATP         0.6671
     30 N3          0.4890    4.1592    2.0257 N.2       1 ATP        -0.5806
     31 C4          0.0637    3.7006    0.7995 C.ar      1 ATP         0.2748
     32 HOG3        1.6818   -4.7495   -7.0346 H         1 ATP         0.4327
     33 HOB2        5.1905   -0.5378   -6.9554 H         1 ATP         0.4701
     34 H5'1        1.2163   -0.0770   -2.0471 H         1 ATP         0.0401
     35 H5'2        2.4655   -1.3443   -2.1563 H         1 ATP         0.0401
     36 H4'         3.8044   -0.1397   -0.4040 H         1 ATP         0.1136
     37 H3'         1.6764   -1.7639    0.2728 H         1 ATP         0.0693
     38 HO3'        2.2232   -1.2979    2.3953 H         1 ATP         0.4124
     39 H2'        -0.0011    0.0027    0.0003 H         1 ATP         0.0854
     40 HO2'       -0.6141    0.5574    2.1082 H         1 ATP         0.4367
     41 H1'         1.7826    1.9024    1.6451 H         1 ATP         0.1343
     42 H8         -0.1116    1.6863   -1.6984 H         1 ATP         0.3302
     43 HN62       -2.5420    7.0730    0.0447 H         1 ATP         0.4160
     44 H2          0.1969    5.7893    3.3086 H         1 ATP         0.0756
     45 H45        -1.3097    6.9080    1.9642 H         1 ATP         0.4587
     46 H46        -1.5735    3.7351   -1.9538 H         1 ATP         0.5254
@<TRIPOS>BOND
     1    1    2 2
     2    1    3 1
     3    1    4 1
     4    1    8 1
     5    4   32 1
     6    5    6 2
     7    5    7 1
     8    5    8 1
     9    5   12 1
    10    7   33 1
    11    9   10 2
    12    9   11 1
    13    9   12 1
    14    9   13 1
    15   13   14 1
    16   14   15 1
    17   14   34 1
    18   14   35 1
    19   15   16 1
    20   15   17 1
    21   15   36 1
    22   16   21 1
    23   17   18 1
    24   17   19 1
    25   17   37 1
    26   18   38 1
    27   19   20 1
    28   19   21 1
    29   19   39 1
    30   20   40 1
    31   21   22 1
    32   21   41 1
    33   22   23 ar
    34   22   31 ar
    35   23   24 ar
    36   23   42 1
    37   24   25 ar
    38   24   46 1
    39   25   26 ar
    40   25   31 ar
    41   26   27 2
    42   26   28 ar
    43   27   43 1
    44   28   29 ar
    45   28   45 1
    46   29   30 ar
    47   29   44 1
    48   30   31 ar
@<TRIPOS>SUBSTRUCTURE
     1 ATP         1 GROUP 0 A     ****
@<TRIPOS>MOLECULE
[[[3,4-dihydroxy-5-(6-imino-7,8-dihydro-1~{H}-purin-8-ylium-9-yl)tetrahydrofuran-2-yl]methoxy-oxido-phosphoryl]oxy-hydroxy-phosphoryl] hydrogen phosphate
   46    48     1     0     0
SMALL
USER_CHARGES

@<TRIPOS>ATOM
      1 PG         -0.6756    3.6038   -6.0856 P.3       1 ATP         1.5595
      2 O1G        -2.0863    3.0933   -6.2778 O.co2     1 ATP        -0.8438
      3 O2G         0.1166    4.1551   -7.2500 O.co2     1 ATP        -0.8438
      4 O3G        -0.6858    4.7178   -4.8918 O.3       1 ATP        -0.7800
      5 PB          0.6798    0.9946   -5.8556 P.3       1 ATP         1.9223
      6 O1B        -0.4298    0.0527   -6.2188 O.2       1 ATP        -0.8953
      7 O2B         1.7141    1.3290   -7.0523 O.3       1 ATP        -0.8165
      8 O3B         0.2061    2.4516   -5.3404 O.3       1 ATP        -0.8247
      9 PA          2.9230    1.2546   -3.9578 P.3       1 ATP         1.6157
     10 O1A         2.4619    2.5263   -3.2796 O.co2     1 ATP        -0.8629
     11 O2A         4.0434    1.2827   -4.9744 O.co2     1 ATP        -0.8629
     12 O3A         1.6316    0.5231   -4.6386 O.3       1 ATP        -0.8191
     13 O5'         3.2903    0.1346   -2.8241 O.3       1 ATP        -0.5644
     14 C5'         2.2816   -0.2918   -1.9206 C.3       1 ATP         0.2062
     15 C4'         2.7248    0.0226   -0.4980 C.3       1 ATP         0.0971
     16 O4'         2.4697    1.4219   -0.2462 O.3       1 ATP        -0.3662
     17 C3'         1.9404   -0.7419    0.5596 C.3       1 ATP         0.0734
     18 O3'         2.7418   -0.8086    1.7389 O.3       1 ATP        -0.5671
     19 C2'         0.7477    0.1630    0.7858 C.3       1 ATP         0.0745
     20 O2'         0.1373   -0.0577    2.0407 O.3       1 ATP        -0.5794
     21 C1'         1.3733    1.5427    0.6747 C.3       1 ATP         0.3824
     22 N9          0.4520    2.5240    0.1767 N.pl3     1 ATP        -0.4324
     23 C8         -0.2004    2.4829   -0.9804 C.ar      1 ATP         0.2662
     24 N7         -0.9830    3.5431   -1.1568 N.pl3     1 ATP        -0.4772
     25 C5         -0.8095    4.3012   -0.0331 C.ar      1 ATP        -0.1305
     26 C6         -1.4065    5.5904    0.3585 C.ar      1 ATP         0.7186
     27 N6         -2.2501    6.2030   -0.4084 N.2       1 ATP        -0.8115
     28 N1         -0.9585    6.0272    1.5994 N.pl3     1 ATP        -0.8400
     29 C2         -0.0508    5.3009    2.3532 C.ar      1 ATP         0.6671
     30 N3          0.4890    4.1592    2.0257 N.2       1 ATP        -0.5806
     31 C4          0.0637    3.7006    0.7995 C.ar      1 ATP         0.2748
     32 HOG3        0.1617    5.1463   -4.6460 H         1 ATP         0.4327
     33 HOB2        1.3729    1.7477   -7.8712 H         1 ATP         0.4701
     34 H5'1        1.3514    0.2330   -2.1577 H         1 ATP         0.0401
     35 H5'2        2.1280   -1.3678   -2.0460 H         1 ATP         0.0401
     36 H4'         3.8044   -0.1397   -0.4040 H         1 ATP         0.1136
     37 H3'         1.6764   -1.7639    0.2728 H         1 ATP         0.0693
     38 HO3'        2.2232   -1.2979    2.3953 H         1 ATP         0.4124
     39 H2'        -0.0011    0.0027    0.0003 H         1 ATP         0.0854
     40 HO2'       -0.1563   -0.9855    2.0596 H         1 ATP         0.4367
     41 H1'         1.7826    1.9024    1.6451 H         1 ATP         0.1343
     42 H8         -0.1116    1.6863   -1.6984 H         1 ATP         0.3302
     43 HN62       -2.5420    7.0730    0.0447 H         1 ATP         0.4160
     44 H2          0.1969    5.7893    3.3086 H         1 ATP         0.0756
     45 H45        -1.3097    6.9080    1.9642 H         1 ATP         0.4587
     46 H46        -1.5735    3.7351   -1.9538 H         1 ATP         0.5254
@<TRIPOS>BOND
     1    1    2 2
     2    1    3 1
     3    1    4 1
     4    1    8 1
     5    4   32 1
     6    5    6 2
     7    5    7 1
     8    5    8 1
     9    5   12 1
    10    7   33 1
    11    9   10 2
    12    9   11 1
    13    9   12 1
    14    9   13 1
    15   13   14 1
    16   14   15 1
    17   14   34 1
    18   14   35 1
    19   15   16 1
    20   15   17 1
    21   15   36 1
    22   16   21 1
    23   17   18 1
    24   17   19 1
    25   17   37 1
    26   18   38 1
    27   19   20 1
    28   19   21 1
    29   19   39 1
    30   20   40 1
    31   21   22 1
    32   21   41 1
    33   22   23 ar
    34   22   31 ar
    35   23   24 ar
    36   23   42 1
    37   24   25 ar
    38   24   46 1
    39   25   26 ar
    40   25   31 ar
    41   26   27 2
    42   26   28 ar
    43   27   43 1
    44   28   29 ar
    45   28   45 1
    46   29   30 ar
    47   29   44 1
    48   30   31 ar
@<TRIPOS>SUBSTRUCTURE
     1 ATP         1 GROUP 0 A     ****
@<TRIPOS>MOLECULE
[[[3,4-dihydroxy-5-(6-imino-7,8-dihydro-1~{H}-purin-8-ylium-9-yl)tetrahydrofuran-2-yl]methoxy-oxido-phosphoryl]oxy-hydroxy-phosphoryl] hydrogen phosphate
   46    48     1     0     0
SMALL
USER_CHARGES

@<TRIPOS>ATOM
      1 PG          7.3329    0.0367   -5.7736 P.3       1 ATP         1.5595
      2 O1G         7.8934   -1.1183   -6.5732 O.co2     1 ATP        -0.8438
      3 O2G         8.2497    1.0039   -5.0584 O.co2     1 ATP        -0.8438
      4 O3G         6.3254    0.8909   -6.7335 O.3       1 ATP        -0.7800
      5 PB          6.4221   -1.4926   -3.4221 P.3       1 ATP         1.9223
      6 O1B         7.0060   -2.8451   -3.7055 O.2       1 ATP        -0.8953
      7 O2B         7.2720   -0.5814   -2.3922 O.3       1 ATP        -0.8165
      8 O3B         6.2351   -0.5384   -4.7133 O.3       1 ATP        -0.8247
      9 PA          3.5300   -2.0728   -3.4114 P.3       1 ATP         1.6157
     10 O1A         3.6302   -3.5801   -3.5007 O.co2     1 ATP        -0.8629
     11 O2A         3.1559   -1.2493   -4.6246 O.co2     1 ATP        -0.8629
     12 O3A         4.9288   -1.4871   -2.8061 O.3       1 ATP        -0.8191
     13 O5'         2.5245   -1.6648   -2.1878 O.3       1 ATP        -0.5644
     14 C5'         2.2816   -0.2918   -1.9206 C.3       1 ATP         0.2062
     15 C4'         2.7248    0.0226   -0.4980 C.3       1 ATP         0.0971
     16 O4'         2.4697    1.4219   -0.2462 O.3       1 ATP        -0.3662
     17 C3'         1.9404   -0.7419    0.5596 C.3       1 ATP         0.0734
     18 O3'         2.7418   -0.8086    1.7389 O.3       1 ATP        -0.5671
     19 C2'         0.7477    0.1630    0.7858 C.3       1 ATP         0.0745
     20 O2'         0.1373   -0.0577    2.0407 O.3       1 ATP        -0.5794
     21 C1'         1.3733    1.5427    0.6747 C.3       1 ATP         0.3824
     22 N9          0.4520    2.5240    0.1767 N.pl3     1 ATP        -0.4324
     23 C8          0.2216    2.8192   -1.0985 C.ar      1 ATP         0.2662
     24 N7         -0.6906    3.7763   -1.2384 N.pl3     1 ATP        -0.4772
     25 C5         -1.0575    4.1037    0.0366 C.ar      1 ATP        -0.1305
     26 C6         -2.0291    5.0943    0.5330 C.ar      1 ATP         0.7186
     27 N6         -2.7093    5.8371   -0.2800 N.2       1 ATP        -0.8115
     28 N1         -2.1051    5.1136    1.9204 N.pl3     1 ATP        -0.8400
     29 C2         -1.3354    4.2774    2.7129 C.ar      1 ATP         0.6671
     30 N3         -0.4707    3.3945    2.2944 N.2       1 ATP        -0.5806
     31 C4         -0.3734    3.3525    0.9220 C.ar      1 ATP         0.2748
     32 HOG3        5.8784    1.6788   -6.3572 H         1 ATP         0.4327
     33 HOB2        8.1957   -0.3429   -2.6206 H         1 ATP         0.4701
     34 H5'1        2.8432    0.3119   -2.6398 H         1 ATP         0.0401
     35 H5'2        1.2128   -0.0927   -2.0428 H         1 ATP         0.0401
     36 H4'         3.8044   -0.1397   -0.4040 H         1 ATP         0.1136
     37 H3'         1.6764   -1.7639    0.2728 H         1 ATP         0.0693
     38 HO3'        2.2232   -1.2979    2.3953 H         1 ATP         0.4124
     39 H2'        -0.0011    0.0027    0.0003 H         1 ATP         0.0854
     40 HO2'       -0.6141    0.5574    2.1082 H         1 ATP         0.4367
     41 H1'         1.7826    1.9024    1.6451 H         1 ATP         0.1343
     42 H8          0.7125    2.3429   -1.9292 H         1 ATP         0.3302
     43 HN62       -3.3217    6.4517    0.2629 H         1 ATP         0.4160
     44 H2         -1.5188    4.4223    3.7890 H         1 ATP         0.0756
     45 H45        -2.7470    5.7627    2.3665 H         1 ATP         0.4587
     46 H46        -1.0305    4.1680   -2.1054 H         1 ATP         0.5254
@<TRIPOS>BOND
     1    1    2 2
     2    1    3 1
     3    1    4 1
     4    1    8 1
     5    4   32 1
     6    5    6 2
     7    5    7 1
     8    5    8 1
     9    5   12 1
    10    7   33 1
    11    9   10 2
    12    9   11 1
    13    9   12 1
    14    9   13 1
    15   13   14 1
    16   14   15 1
    17   14   34 1
    18   14   35 1
    19   15   16 1
    20   15   17 1
    21   15   36 1
    22   16   21 1
    23   17   18 1
    24   17   19 1
    25   17   37 1
    26   18   38 1
    27   19   20 1
    28   19   21 1
    29   19   39 1
    30   20   40 1
    31   21   22 1
    32   21   41 1
    33   22   23 ar
    34   22   31 ar
    35   23   24 ar
    36   23   42 1
    37   24   25 ar
    38   24   46 1
    39   25   26 ar
    40   25   31 ar
    41   26   27 2
    42   26   28 ar
    43   27   43 1
    44   28   29 ar
    45   28   45 1
    46   29   30 ar
    47   29   44 1
    48   30   31 ar
@<TRIPOS>SUBSTRUCTURE
     1 ATP         1 GROUP 0 A     ****
@<TRIPOS>MOLECULE
[[[3,4-dihydroxy-5-(6-imino-7,8-dihydro-1~{H}-purin-8-ylium-9-yl)tetrahydrofuran-2-yl]methoxy-oxido-phosphoryl]oxy-hydroxy-phosphoryl] hydrogen phosphate
   46    48     1     0     0
SMALL
USER_CHARGES

@<TRIPOS>ATOM
      1 PG          0.2010   -2.8627   -5.3168 P.3       1 ATP         1.5595
      2 O1G        -0.9274   -2.4036   -4.4203 O.co2     1 ATP        -0.8438
      3 O2G         1.3727   -3.6374   -4.7561 O.co2     1 ATP        -0.8438
      4 O3G        -0.4358   -3.7118   -6.5577 O.3       1 ATP        -0.7800
      5 PB          1.5445   -0.2592   -5.6554 P.3       1 ATP         1.9223
      6 O1B         1.9079    0.7165   -6.7353 O.2       1 ATP        -0.8953
      7 O2B         0.5910    0.3311   -4.4909 O.3       1 ATP        -0.8165
      8 O3B         0.7628   -1.5823   -6.1565 O.3       1 ATP        -0.8247
      9 PA          3.9552   -0.2066   -3.9564 P.3       1 ATP         1.6157
     10 O1A         4.6399    0.8510   -4.7947 O.co2     1 ATP        -0.8629
     11 O2A         4.7577   -1.2974   -3.2811 O.co2     1 ATP        -0.8629
     12 O3A         2.7844   -0.9106   -4.8506 O.3       1 ATP        -0.8191
     13 O5'         3.0213    0.5153   -2.8245 O.3       1 ATP        -0.5644
     14 C5'         2.2816   -0.2918   -1.9206 C.3       1 ATP         0.2062
     15 C4'         2.7248    0.0226   -0.4980 C.3       1 ATP         0.0971
     16 O4'         2.4697    1.4219   -0.2462 O.3       1 ATP        -0.3662
     17 C3'         1.9404   -0.7419    0.5596 C.3       1 ATP         0.0734
     18 O3'         2.7418   -0.8086    1.7389 O.3       1 ATP        -0.5671
     19 C2'         0.7477    0.1630    0.7858 C.3       1 ATP         0.0745
     20 O2'         0.1373   -0.0577    2.0407 O.3       1 ATP        -0.5794
     21 C1'         1.3733    1.5427    0.6747 C.3       1 ATP         0.3824
     22 N9          0.4520    2.5240    0.1767 N.pl3     1 ATP        -0.4324
     23 C8          0.2216    2.8192   -1.0985 C.ar      1 ATP         0.2662
     24 N7         -0.6906    3.7763   -1.2384 N.pl3     1 ATP        -0.4772
     25 C5         -1.0575    4.1037    0.0366 C.ar      1 ATP        -0.1305
     26 C6         -2.0291    5.0943    0.5330 C.ar      1 ATP         0.7186
     27 N6         -2.7093    5.8371   -0.2800 N.2       1 ATP        -0.8115
     28 N1         -2.1051    5.1136    1.9204 N.pl3     1 ATP        -0.8400
     29 C2         -1.3354    4.2774    2.7129 C.ar      1 ATP         0.6671
     30 N3         -0.4707    3.3945    2.2944 N.2       1 ATP        -0.5806
     31 C4         -0.3734    3.3525    0.9220 C.ar      1 ATP         0.2748
     32 HOG3        0.1735   -4.0806   -7.2322 H         1 ATP         0.4327
     33 HOB2       -0.2929    0.6807   -4.7332 H         1 ATP         0.4701
     34 H5'1        1.2163   -0.0770   -2.0471 H         1 ATP         0.0401
     35 H5'2        2.4655   -1.3443   -2.1563 H         1 ATP         0.0401
     36 H4'         3.8044   -0.1397   -0.4040 H         1 ATP         0.1136
     37 H3'         1.6764   -1.7639    0.2728 H         1 ATP         0.0693
     38 HO3'        2.2232   -1.2979    2.3953 H         1 ATP         0.4124
     39 H2'        -0.0011    0.0027    0.0003 H         1 ATP         0.0854
     40 HO2'       -0.6141    0.5574    2.1082 H         1 ATP         0.4367
     41 H1'         1.7826    1.9024    1.6451 H         1 ATP         0.1343
     42 H8          0.7125    2.3429   -1.9292 H         1 ATP         0.3302
     43 HN62       -3.3217    6.4517    0.2629 H         1 ATP         0.4160
     44 H2         -1.5188    4.4223    3.7890 H         1 ATP         0.0756
     45 H45        -2.7470    5.7627    2.3665 H         1 ATP         0.4587
     46 H46        -1.0305    4.1680   -2.1054 H         1 ATP         0.5254
@<TRIPOS>BOND
     1    1    2 2
     2    1    3 1
     3    1    4 1
     4    1    8 1
     5    4   32 1
     6    5    6 2
     7    5    7 1
     8    5    8 1
     9    5   12 1
    10    7   33 1
    11    9   10 2
    12    9   11 1
    13    9   12 1
    14    9   13 1
    15   13   14 1
    16   14   15 1
    17   14   34 1
    18   14   35 1
    19   15   16 1
    20   15   17 1
    21   15   36 1
    22   16   21 1
    23   17   18 1
    24   17   19 1
    25   17   37 1
    26   18   38 1
    27   19   20 1
    28   19   21 1
    29   19   39 1
    30   20   40 1
    31   21   22 1
    32   21   41 1
    33   22   23 ar
    34   22   31 ar
    35   23   24 ar
    36   23   42 1
    37   24   25 ar
    38   24   46 1
    39   25   26 ar
    40   25   31 ar
    41   26   27 2
    42   26   28 ar
    43   27   43 1
    44   28   29 ar
    45   28   45 1
    46   29   30 ar
    47   29   44 1
    48   30   31 ar
@<TRIPOS>SUBSTRUCTURE
     1 ATP         1 GROUP 0 A     ****
@<TRIPOS>MOLECULE
[[[3,4-dihydroxy-5-(6-imino-7,8-dihydro-1~{H}-purin-8-ylium-9-yl)tetrahydrofuran-2-yl]methoxy-oxido-phosphoryl]oxy-hydroxy-phosphoryl] hydrogen phosphate
   46    48     1     0     0
SMALL
USER_CHARGES

@<TRIPOS>ATOM
      1 PG          4.8626   -3.6652   -6.7166 P.3       1 ATP         1.5595
      2 O1G         4.9230   -2.9147   -8.0285 O.co2     1 ATP        -0.8438
      3 O2G         4.7632   -5.1741   -6.6886 O.co2     1 ATP        -0.8438
      4 O3G         6.1368   -3.2125   -5.8014 O.3       1 ATP        -0.7800
      5 PB          3.3785   -1.5097   -5.3567 P.3       1 ATP         1.9223
      6 O1B         4.4684   -0.8608   -4.5558 O.2       1 ATP        -0.8953
      7 O2B         3.0135   -0.7669   -6.7454 O.3       1 ATP        -0.8165
      8 O3B         3.6667   -3.0363   -5.8031 O.3       1 ATP        -0.8247
      9 PA          1.5543   -2.4556   -3.2404 P.3       1 ATP         1.6157
     10 O1A         2.0068   -3.8946   -3.3602 O.co2     1 ATP        -0.8629
     11 O2A         0.1179   -2.1223   -2.9006 O.co2     1 ATP        -0.8629
     12 O3A         1.9540   -1.6623   -4.6104 O.3       1 ATP        -0.8191
     13 O5'         2.5245   -1.6648   -2.1878 O.3       1 ATP        -0.5644
     14 C5'         2.2816   -0.2918   -1.9206 C.3       1 ATP         0.2062
     15 C4'         2.7248    0.0226   -0.4980 C.3       1 ATP         0.0971
     16 O4'         2.4697    1.4219   -0.2462 O.3       1 ATP        -0.3662
     17 C3'         1.9404   -0.7419    0.5596 C.3       1 ATP         0.0734
     18 O3'         2.7418   -0.8086    1.7389 O.3       1 ATP        -0.5671
     19 C2'         0.7477    0.1630    0.7858 C.3       1 ATP         0.0745
     20 O2'         0.1373   -0.0577    2.0407 O.3       1 ATP        -0.5794
     21 C1'         1.3733    1.5427    0.6747 C.3       1 ATP         0.3824
     22 N9          0.4520    2.5240    0.1767 N.pl3     1 ATP        -0.4324
     23 C8          0.2216    2.8192   -1.0985 C.ar      1 ATP         0.2662
     24 N7         -0.6906    3.7763   -1.2384 N.pl3     1 ATP        -0.4772
     25 C5         -1.0575    4.1037    0.0366 C.ar      1 ATP        -0.1305
     26 C6         -2.0291    5.0943    0.5330 C.ar      1 ATP         0.7186
     27 N6         -2.7093    5.8371   -0.2800 N.2       1 ATP        -0.8115
     28 N1         -2.1051    5.1136    1.9204 N.pl3     1 ATP        -0.8400
     29 C2         -1.3354    4.2774    2.7129 C.ar      1 ATP         0.6671
     30 N3         -0.4707    3.3945    2.2944 N.2       1 ATP        -0.5806
     31 C4         -0.3734    3.3525    0.9220 C.ar      1 ATP         0.2748
     32 HOG3        6.2393   -3.6145   -4.9126 H         1 ATP         0.4327
     33 HOB2        2.6990    0.1619   -6.7184 H         1 ATP         0.4701
     34 H5'1        2.8432    0.3119   -2.6398 H         1 ATP         0.0401
     35 H5'2        1.2128   -0.0927   -2.0428 H         1 ATP         0.0401
     36 H4'         3.8044   -0.1397   -0.4040 H         1 ATP         0.1136
     37 H3'         1.6764   -1.7639    0.2728 H         1 ATP         0.0693
     38 HO3'        2.2232   -1.2979    2.3953 H         1 ATP         0.4124
     39 H2'        -0.0011    0.0027    0.0003 H         1 ATP         0.0854
     40 HO2'       -0.6141    0.5574    2.1082 H         1 ATP         0.4367
     41 H1'         1.7826    1.9024    1.6451 H         1 ATP         0.1343
     42 H8          0.7125    2.3429   -1.9292 H         1 ATP         0.3302
     43 HN62       -3.3217    6.4517    0.2629 H         1 ATP         0.4160
     44 H2         -1.5188    4.4223    3.7890 H         1 ATP         0.0756
     45 H45        -2.7470    5.7627    2.3665 H         1 ATP         0.4587
     46 H46        -1.0305    4.1680   -2.1054 H         1 ATP         0.5254
@<TRIPOS>BOND
     1    1    2 2
     2    1    3 1
     3    1    4 1
     4    1    8 1
     5    4   32 1
     6    5    6 2
     7    5    7 1
     8    5    8 1
     9    5   12 1
    10    7   33 1
    11    9   10 2
    12    9   11 1
    13    9   12 1
    14    9   13 1
    15   13   14 1
    16   14   15 1
    17   14   34 1
    18   14   35 1
    19   15   16 1
    20   15   17 1
    21   15   36 1
    22   16   21 1
    23   17   18 1
    24   17   19 1
    25   17   37 1
    26   18   38 1
    27   19   20 1
    28   19   21 1
    29   19   39 1
    30   20   40 1
    31   21   22 1
    32   21   41 1
    33   22   23 ar
    34   22   31 ar
    35   23   24 ar
    36   23   42 1
    37   24   25 ar
    38   24   46 1
    39   25   26 ar
    40   25   31 ar
    41   26   27 2
    42   26   28 ar
    43   27   43 1
    44   28   29 ar
    45   28   45 1
    46   29   30 ar
    47   29   44 1
    48   30   31 ar
@<TRIPOS>SUBSTRUCTURE
     1 ATP         1 GROUP 0 A     ****
@<TRIPOS>MOLECULE
[[[3,4-dihydroxy-5-(6-imino-7,8-dihydro-1~{H}-purin-8-ylium-9-yl)tetrahydrofuran-2-yl]methoxy-oxido-phosphoryl]oxy-hydroxy-phosphoryl] hydrogen phosphate
   46    48     1     0     0
SMALL
USER_CHARGES

@<TRIPOS>ATOM
      1 PG         -0.2204   -1.3423   -5.3396 P.3       1 ATP         1.5595
      2 O1G        -0.7511   -2.7478   -5.5150 O.co2     1 ATP        -0.8438
      3 O2G        -0.2688   -0.3461   -6.4765 O.co2     1 ATP        -0.8438
      4 O3G        -0.9410   -0.6754   -4.0349 O.3       1 ATP        -0.7800
      5 PB          2.6587   -1.9707   -5.4564 P.3       1 ATP         1.9223
      6 O1B         2.6294   -3.4145   -5.8623 O.2       1 ATP        -0.8953
      7 O2B         2.9262   -0.9256   -6.6604 O.3       1 ATP        -0.8165
      8 O3B         1.3043   -1.4212   -4.7660 O.3       1 ATP        -0.8247
      9 PA          3.9668   -2.1113   -2.8163 P.3       1 ATP         1.6157
     10 O1A         5.0717   -1.3104   -2.1623 O.co2     1 ATP        -0.8629
     11 O2A         4.0213   -3.6232   -2.8462 O.co2     1 ATP        -0.8629
     12 O3A         3.7625   -1.5756   -4.3451 O.3       1 ATP        -0.8191
     13 O5'         2.5245   -1.6648   -2.1878 O.3       1 ATP        -0.5644
     14 C5'         2.2816   -0.2918   -1.9206 C.3       1 ATP         0.2062
     15 C4'         2.7248    0.0226   -0.4980 C.3       1 ATP         0.0971
     16 O4'         2.4697    1.4219   -0.2462 O.3       1 ATP        -0.3662
     17 C3'         1.9404   -0.7419    0.5596 C.3       1 ATP         0.0734
     18 O3'         2.7418   -0.8086    1.7389 O.3       1 ATP        -0.5671
     19 C2'         0.7477    0.1630    0.7858 C.3       1 ATP         0.0745
     20 O2'         0.1373   -0.0577    2.0407 O.3       1 ATP        -0.5794
     21 C1'         1.3733    1.5427    0.6747 C.3       1 ATP         0.3824
     22 N9          0.4520    2.5240    0.1767 N.pl3     1 ATP        -0.4324
     23 C8          0.2216    2.8192   -1.0985 C.ar      1 ATP         0.2662
     24 N7         -0.6906    3.7763   -1.2384 N.pl3     1 ATP        -0.4772
     25 C5         -1.0575    4.1037    0.0366 C.ar      1 ATP        -0.1305
     26 C6         -2.0291    5.0943    0.5330 C.ar      1 ATP         0.7186
     27 N6         -2.7093    5.8371   -0.2800 N.2       1 ATP        -0.8115
     28 N1         -2.1051    5.1136    1.9204 N.pl3     1 ATP        -0.8400
     29 C2         -1.3354    4.2774    2.7129 C.ar      1 ATP         0.6671
     30 N3         -0.4707    3.3945    2.2944 N.2       1 ATP        -0.5806
     31 C4         -0.3734    3.3525    0.9220 C.ar      1 ATP         0.2748
     32 HOG3       -0.7004    0.2427   -3.7873 H         1 ATP         0.4327
     33 HOB2        2.2967   -0.8964   -7.4121 H         1 ATP         0.4701
     34 H5'1        2.8432    0.3119   -2.6398 H         1 ATP         0.0401
     35 H5'2        1.2128   -0.0927   -2.0428 H         1 ATP         0.0401
     36 H4'         3.8044   -0.1397   -0.4040 H         1 ATP         0.1136
     37 H3'         1.6764   -1.7639    0.2728 H         1 ATP         0.0693
     38 HO3'        2.2232   -1.2979    2.3953 H         1 ATP         0.4124
     39 H2'        -0.0011    0.0027    0.0003 H         1 ATP         0.0854
     40 HO2'       -0.1563   -0.9855    2.0596 H         1 ATP         0.4367
     41 H1'         1.7826    1.9024    1.6451 H         1 ATP         0.1343
     42 H8          0.7125    2.3429   -1.9292 H         1 ATP         0.3302
     43 HN62       -3.3217    6.4517    0.2629 H         1 ATP         0.4160
     44 H2         -1.5188    4.4223    3.7890 H         1 ATP         0.0756
     45 H45        -2.7470    5.7627    2.3665 H         1 ATP         0.4587
     46 H46        -1.0305    4.1680   -2.1054 H         1 ATP         0.5254
@<TRIPOS>BOND
     1    1    2 2
     2    1    3 1
     3    1    4 1
     4    1    8 1
     5    4   32 1
     6    5    6 2
     7    5    7 1
     8    5    8 1
     9    5   12 1
    10    7   33 1
    11    9   10 2
    12    9   11 1
    13    9   12 1
    14    9   13 1
    15   13   14 1
    16   14   15 1
    17   14   34 1
    18   14   35 1
    19   15   16 1
    20   15   17 1
    21   15   36 1
    22   16   21 1
    23   17   18 1
    24   17   19 1
    25   17   37 1
    26   18   38 1
    27   19   20 1
    28   19   21 1
    29   19   39 1
    30   20   40 1
    31   21   22 1
    32   21   41 1
    33   22   23 ar
    34   22   31 ar
    35   23   24 ar
    36   23   42 1
    37   24   25 ar
    38   24   46 1
    39   25   26 ar
    40   25   31 ar
    41   26   27 2
    42   26   28 ar
    43   27   43 1
    44   28   29 ar
    45   28   45 1
    46   29   30 ar
    47   29   44 1
    48   30   31 ar
@<TRIPOS>SUBSTRUCTURE
     1 ATP         1 GROUP 0 A     ****
@<TRIPOS>MOLECULE
[[[3,4-dihydroxy-5-(6-imino-7,8-dihydro-1~{H}-purin-8-ylium-9-yl)tetrahydrofuran-2-yl]methoxy-oxido-phosphoryl]oxy-hydroxy-phosphoryl] hydrogen phosphate
   46    48     1     0     0
SMALL
USER_CHARGES

@<TRIPOS>ATOM
      1 PG         -6.7857   -4.9303    4.0536 P.3       1 ATP         1.5595
      2 O1G        -7.4589   -6.2839    4.1020 O.co2     1 ATP        -0.8438
      3 O2G        -7.5205   -3.7154    3.5325 O.co2     1 ATP        -0.8438
      4 O3G        -6.2052   -4.5867    5.5406 O.3       1 ATP        -0.7800
      5 PB         -5.0595   -5.4116    1.7113 P.3       1 ATP         1.9223
      6 O1B        -5.5776   -6.7344    1.2297 O.2       1 ATP        -0.8953
      7 O2B        -5.6287   -4.1228    0.9185 O.3       1 ATP        -0.8165
      8 O3B        -5.3671   -5.0740    3.2619 O.3       1 ATP        -0.8247
      9 PA         -2.2652   -6.0679    2.3914 P.3       1 ATP         1.6157
     10 O1A        -2.2515   -7.4751    1.8351 O.co2     1 ATP        -0.8629
     11 O2A        -2.3598   -5.8266    3.8823 O.co2     1 ATP        -0.8629
     12 O3A        -3.4559   -5.2240    1.6592 O.3       1 ATP        -0.8191
     13 O5'        -0.9724   -5.2440    1.8220 O.3       1 ATP        -0.5644
     14 C5'        -0.7840   -3.8935    2.2172 C.3       1 ATP         0.2062
     15 C4'        -0.0724   -3.1466    1.1027 C.3       1 ATP         0.0971
     16 O4'        -0.8674   -3.1929   -0.0945 O.3       1 ATP        -0.3662
     17 C3'         0.1338   -1.6715    1.4027 C.3       1 ATP         0.0734
     18 O3'         1.2893   -1.4445    2.1808 O.3       1 ATP        -0.5671
     19 C2'         0.2158   -1.0724    0.0128 C.3       1 ATP         0.0745
     20 O2'         1.5141   -1.2448   -0.5513 O.3       1 ATP        -0.5794
     21 C1'        -0.7897   -1.9176   -0.7583 C.3       1 ATP         0.3824
     22 N9         -2.1040   -1.3333   -0.7704 N.pl3     1 ATP        -0.4324
     23 C8         -3.0590   -1.5123    0.1363 C.ar      1 ATP         0.2662
     24 N7         -4.1655   -0.8354   -0.1554 N.pl3     1 ATP        -0.4772
     25 C5         -3.8852   -0.1874   -1.3253 C.ar      1 ATP        -0.1305
     26 C6         -4.7113    0.7160   -2.1458 C.ar      1 ATP         0.7186
     27 N6         -5.9213    1.0209   -1.8021 N.2       1 ATP        -0.8115
     28 N1         -4.0411    1.1673   -3.2764 N.pl3     1 ATP        -0.8400
     29 C2         -2.7403    0.7865   -3.5638 C.ar      1 ATP         0.6671
     30 N3         -1.9921   -0.0108   -2.8519 N.2       1 ATP        -0.5806
     31 C4         -2.6302   -0.4747   -1.7239 C.ar      1 ATP         0.2748
     32 HOG3       -5.7370   -3.7351    5.6735 H         1 ATP         0.4327
     33 HOB2       -6.5954   -3.9561    0.9160 H         1 ATP         0.4701
     34 H5'1       -1.7618   -3.4448    2.4164 H         1 ATP         0.0401
     35 H5'2       -0.1874   -3.8744    3.1341 H         1 ATP         0.0401
     36 H4'         0.8874   -3.6466    0.8805 H         1 ATP         0.1136
     37 H3'        -0.7376   -1.2333    1.9867 H         1 ATP         0.0693
     38 HO3'        1.1626   -1.9325    3.0084 H         1 ATP         0.4124
     39 H2'        -0.0384   -0.0310    0.0096 H         1 ATP         0.0854
     40 HO2'        2.1463   -0.7958    0.0370 H         1 ATP         0.4367
     41 H1'        -0.4769   -2.1002   -1.8093 H         1 ATP         0.1343
     42 H8         -2.9569   -2.1323    1.0098 H         1 ATP         0.3302
     43 HN62       -6.3169    1.6552   -2.5012 H         1 ATP         0.4160
     44 H2         -2.3612    1.2343   -4.4957 H         1 ATP         0.0756
     45 H45        -4.5223    1.7976   -3.9117 H         1 ATP         0.4587
     46 H46        -5.0218   -0.8132    0.3804 H         1 ATP         0.5254
@<TRIPOS>BOND
     1    1    2 2
     2    1    3 1
     3    1    4 1
     4    1    8 1
     5    4   32 1
     6    5    6 2
     7    5    7 1
     8    5    8 1
     9    5   12 1
    10    7   33 1
    11    9   10 2
    12    9   11 1
    13    9   12 1
    14    9   13 1
    15   13   14 1
    16   14   15 1
    17   14   34 1
    18   14   35 1
    19   15   16 1
    20   15   17 1
    21   15   36 1
    22   16   21 1
    23   17   18 1
    24   17   19 1
    25   17   37 1
    26   18   38 1
    27   19   20 1
    28   19   21 1
    29   19   39 1
    30   20   40 1
    31   21   22 1
    32   21   41 1
    33   22   23 ar
    34   22   31 ar
    35   23   24 ar
    36   23   42 1
    37   24   25 ar
    38   24   46 1
    39   25   26 ar
    40   25   31 ar
    41   26   27 2
    42   26   28 ar
    43   27   43 1
    44   28   29 ar
    45   28   45 1
    46   29   30 ar
    47   29   44 1
    48   30   31 ar
@<TRIPOS>SUBSTRUCTURE
     1 ATP         1 GROUP 0 A     ****
@<TRIPOS>MOLECULE
[[[3,4-dihydroxy-5-(6-imino-7,8-dihydro-1~{H}-purin-8-ylium-9-yl)tetrahydrofuran-2-yl]methoxy-oxido-phosphoryl]oxy-hydroxy-phosphoryl] hydrogen phosphate
   46    48     1     0     0
SMALL
USER_CHARGES

@<TRIPOS>ATOM
      1 PG          4.9096   -0.2561   -7.2308 P.3       1 ATP         1.5595
      2 O1G         3.4216   -0.2419   -7.5017 O.co2     1 ATP        -0.8438
      3 O2G         5.8072   -1.2872   -7.8776 O.co2     1 ATP        -0.8438
      4 O3G         5.5091    1.2282   -7.5528 O.3       1 ATP        -0.7800
      5 PB          4.8246   -1.4165   -4.5208 P.3       1 ATP         1.9223
      6 O1B         5.5098   -2.7326   -4.7418 O.2       1 ATP        -0.8953
      7 O2B         5.1574   -0.6988   -3.1110 O.3       1 ATP        -0.8165
      8 O3B         5.1527   -0.2759   -5.6182 O.3       1 ATP        -0.8247
      9 PA          2.1371   -2.2715   -3.6563 P.3       1 ATP         1.6157
     10 O1A         2.4857   -3.7434   -3.7019 O.co2     1 ATP        -0.8629
     11 O2A         0.7457   -1.7949   -4.0121 O.co2     1 ATP        -0.8629
     12 O3A         3.2103   -1.4478   -4.5705 O.3       1 ATP        -0.8191
     13 O5'         2.5245   -1.6648   -2.1878 O.3       1 ATP        -0.5644
     14 C5'         2.2816   -0.2918   -1.9206 C.3       1 ATP         0.2062
     15 C4'         2.7248    0.0226   -0.4980 C.3       1 ATP         0.0971
     16 O4'         2.4697    1.4219   -0.2462 O.3       1 ATP        -0.3662
     17 C3'         1.9404   -0.7419    0.5596 C.3       1 ATP         0.0734
     18 O3'         2.7418   -0.8086    1.7389 O.3       1 ATP        -0.5671
     19 C2'         0.7477    0.1630    0.7858 C.3       1 ATP         0.0745
     20 O2'         0.1373   -0.0577    2.0407 O.3       1 ATP        -0.5794
     21 C1'         1.3733    1.5427    0.6747 C.3       1 ATP         0.3824
     22 N9          0.4520    2.5240    0.1767 N.pl3     1 ATP        -0.4324
     23 C8          0.2216    2.8192   -1.0985 C.ar      1 ATP         0.2662
     24 N7         -0.6906    3.7763   -1.2384 N.pl3     1 ATP        -0.4772
     25 C5         -1.0575    4.1037    0.0366 C.ar      1 ATP        -0.1305
     26 C6         -2.0291    5.0943    0.5330 C.ar      1 ATP         0.7186
     27 N6         -2.7093    5.8371   -0.2800 N.2       1 ATP        -0.8115
     28 N1         -2.1051    5.1136    1.9204 N.pl3     1 ATP        -0.8400
     29 C2         -1.3354    4.2774    2.7129 C.ar      1 ATP         0.6671
     30 N3         -0.4707    3.3945    2.2944 N.2       1 ATP        -0.5806
     31 C4         -0.3734    3.3525    0.9220 C.ar      1 ATP         0.2748
     32 HOG3        6.4695    1.3814   -7.4250 H         1 ATP         0.4327
     33 HOB2        6.0873   -0.4629   -2.9065 H         1 ATP         0.4701
     34 H5'1        2.8432    0.3119   -2.6398 H         1 ATP         0.0401
     35 H5'2        1.2128   -0.0927   -2.0428 H         1 ATP         0.0401
     36 H4'         3.8044   -0.1397   -0.4040 H         1 ATP         0.1136
     37 H3'         1.6764   -1.7639    0.2728 H         1 ATP         0.0693
     38 HO3'        3.5554   -1.2733    1.4914 H         1 ATP         0.4124
     39 H2'        -0.0011    0.0027    0.0003 H         1 ATP         0.0854
     40 HO2'       -0.1563   -0.9855    2.0596 H         1 ATP         0.4367
     41 H1'         1.7826    1.9024    1.6451 H         1 ATP         0.1343
     42 H8          0.7125    2.3429   -1.9292 H         1 ATP         0.3302
     43 HN62       -3.3217    6.4517    0.2629 H         1 ATP         0.4160
     44 H2         -1.5188    4.4223    3.7890 H         1 ATP         0.0756
     45 H45        -2.7470    5.7627    2.3665 H         1 ATP         0.4587
     46 H46        -1.0305    4.1680   -2.1054 H         1 ATP         0.5254
@<TRIPOS>BOND
     1    1    2 2
     2    1    3 1
     3    1    4 1
     4    1    8 1
     5    4   32 1
     6    5    6 2
     7    5    7 1
     8    5    8 1
     9    5   12 1
    10    7   33 1
    11    9   10 2
    12    9   11 1
    13    9   12 1
    14    9   13 1
    15   13   14 1
    16   14   15 1
    17   14   34 1
    18   14   35 1
    19   15   16 1
    20   15   17 1
    21   15   36 1
    22   16   21 1
    23   17   18 1
    24   17   19 1
    25   17   37 1
    26   18   38 1
    27   19   20 1
    28   19   21 1
    29   19   39 1
    30   20   40 1
    31   21   22 1
    32   21   41 1
    33   22   23 ar
    34   22   31 ar
    35   23   24 ar
    36   23   42 1
    37   24   25 ar
    38   24   46 1
    39   25   26 ar
    40   25   31 ar
    41   26   27 2
    42   26   28 ar
    43   27   43 1
    44   28   29 ar
    45   28   45 1
    46   29   30 ar
    47   29   44 1
    48   30   31 ar
@<TRIPOS>SUBSTRUCTURE
     1 ATP         1 GROUP 0 A     ****
@<TRIPOS>MOLECULE
[[[3,4-dihydroxy-5-(6-imino-7,8-dihydro-1~{H}-purin-8-ylium-9-yl)tetrahydrofuran-2-yl]methoxy-oxido-phosphoryl]oxy-hydroxy-phosphoryl] hydrogen phosphate
   46    48     1     0     0
SMALL
USER_CHARGES

@<TRIPOS>ATOM
      1 PG          1.8280    1.4911   -6.1322 P.3       1 ATP         1.5595
      2 O1G         3.0277    2.3780   -6.3814 O.co2     1 ATP        -0.8438
      3 O2G         1.2165    1.3807   -4.7533 O.co2     1 ATP        -0.8438
      4 O3G         0.6527    1.9001   -7.1893 O.3       1 ATP        -0.7800
      5 PB          3.2195   -1.1087   -6.1819 P.3       1 ATP         1.9223
      6 O1B         3.2321   -2.3927   -6.9575 O.2       1 ATP        -0.8953
      7 O2B         4.6222   -0.3051   -6.1638 O.3       1 ATP        -0.8165
      8 O3B         2.1529   -0.0062   -6.6913 O.3       1 ATP        -0.8247
      9 PA          3.5300   -2.0728   -3.4114 P.3       1 ATP         1.6157
     10 O1A         4.9024   -1.4905   -3.1520 O.co2     1 ATP        -0.8629
     11 O2A         3.3570   -3.5495   -3.6925 O.co2     1 ATP        -0.8629
     12 O3A         2.8226   -1.2346   -4.6211 O.3       1 ATP        -0.8191
     13 O5'         2.5245   -1.6648   -2.1878 O.3       1 ATP        -0.5644
     14 C5'         2.2816   -0.2918   -1.9206 C.3       1 ATP         0.2062
     15 C4'         2.7248    0.0226   -0.4980 C.3       1 ATP         0.0971
     16 O4'         2.4697    1.4219   -0.2462 O.3       1 ATP        -0.3662
     17 C3'         1.9404   -0.7419    0.5596 C.3       1 ATP         0.0734
     18 O3'         2.7418   -0.8086    1.7389 O.3       1 ATP        -0.5671
     19 C2'         0.7477    0.1630    0.7858 C.3       1 ATP         0.0745
     20 O2'         0.1373   -0.0577    2.0407 O.3       1 ATP        -0.5794
     21 C1'         1.3733    1.5427    0.6747 C.3       1 ATP         0.3824
     22 N9          0.4520    2.5240    0.1767 N.pl3     1 ATP        -0.4324
     23 C8          0.2216    2.8192   -1.0985 C.ar      1 ATP         0.2662
     24 N7         -0.6906    3.7763   -1.2384 N.pl3     1 ATP        -0.4772
     25 C5         -1.0575    4.1037    0.0366 C.ar      1 ATP        -0.1305
     26 C6         -2.0291    5.0943    0.5330 C.ar      1 ATP         0.7186
     27 N6         -2.7093    5.8371   -0.2800 N.2       1 ATP        -0.8115
     28 N1         -2.1051    5.1136    1.9204 N.pl3     1 ATP        -0.8400
     29 C2         -1.3354    4.2774    2.7129 C.ar      1 ATP         0.6671
     30 N3         -0.4707    3.3945    2.2944 N.2       1 ATP        -0.5806
     31 C4         -0.3734    3.3525    0.9220 C.ar      1 ATP         0.2748
     32 HOG3       -0.1970    1.4112   -7.1547 H         1 ATP         0.4327
     33 HOB2        5.0090   -0.0067   -7.0144 H         1 ATP         0.4701
     34 H5'1        2.8432    0.3119   -2.6398 H         1 ATP         0.0401
     35 H5'2        1.2128   -0.0927   -2.0428 H         1 ATP         0.0401
     36 H4'         3.8044   -0.1397   -0.4040 H         1 ATP         0.1136
     37 H3'         1.6764   -1.7639    0.2728 H         1 ATP         0.0693
     38 HO3'        2.2232   -1.2979    2.3953 H         1 ATP         0.4124
     39 H2'        -0.0011    0.0027    0.0003 H         1 ATP         0.0854
     40 HO2'       -0.1563   -0.9855    2.0596 H         1 ATP         0.4367
     41 H1'         1.7826    1.9024    1.6451 H         1 ATP         0.1343
     42 H8          0.7125    2.3429   -1.9292 H         1 ATP         0.3302
     43 HN62       -3.3217    6.4517    0.2629 H         1 ATP         0.4160
     44 H2         -1.5188    4.4223    3.7890 H         1 ATP         0.0756
     45 H45        -2.7470    5.7627    2.3665 H         1 ATP         0.4587
     46 H46        -1.0305    4.1680   -2.1054 H         1 ATP         0.5254
@<TRIPOS>BOND
     1    1    2 2
     2    1    3 1
     3    1    4 1
     4    1    8 1
     5    4   32 1
     6    5    6 2
     7    5    7 1
     8    5    8 1
     9    5   12 1
    10    7   33 1
    11    9   10 2
    12    9   11 1
    13    9   12 1
    14    9   13 1
    15   13   14 1
    16   14   15 1
    17   14   34 1
    18   14   35 1
    19   15   16 1
    20   15   17 1
    21   15   36 1
    22   16   21 1
    23   17   18 1
    24   17   19 1
    25   17   37 1
    26   18   38 1
    27   19   20 1
    28   19   21 1
    29   19   39 1
    30   20   40 1
    31   21   22 1
    32   21   41 1
    33   22   23 ar
    34   22   31 ar
    35   23   24 ar
    36   23   42 1
    37   24   25 ar
    38   24   46 1
    39   25   26 ar
    40   25   31 ar
    41   26   27 2
    42   26   28 ar
    43   27   43 1
    44   28   29 ar
    45   28   45 1
    46   29   30 ar
    47   29   44 1
    48   30   31 ar
@<TRIPOS>SUBSTRUCTURE
     1 ATP         1 GROUP 0 A     ****
@<TRIPOS>MOLECULE
[[[3,4-dihydroxy-5-(6-imino-7,8-dihydro-1~{H}-purin-8-ylium-9-yl)tetrahydrofuran-2-yl]methoxy-oxido-phosphoryl]oxy-hydroxy-phosphoryl] hydrogen phosphate
   46    48     1     0     0
SMALL
USER_CHARGES

@<TRIPOS>ATOM
      1 PG          8.0264   -0.2161   -5.1954 P.3       1 ATP         1.5595
      2 O1G         8.8908    0.4258   -4.1331 O.co2     1 ATP        -0.8438
      3 O2G         7.8423    0.4375   -6.5468 O.co2     1 ATP        -0.8438
      4 O3G         8.5414   -1.7483   -5.4265 O.3       1 ATP        -0.7800
      5 PB          5.3037   -1.3495   -5.1747 P.3       1 ATP         1.9223
      6 O1B         4.7378   -0.7809   -6.4423 O.2       1 ATP        -0.8953
      7 O2B         5.8423   -2.8697   -5.2859 O.3       1 ATP        -0.8165
      8 O3B         6.5608   -0.5419   -4.5581 O.3       1 ATP        -0.8247
      9 PA          2.8603   -2.1314   -3.7189 P.3       1 ATP         1.6157
     10 O1A         3.0799   -3.6282   -3.7534 O.co2     1 ATP        -0.8629
     11 O2A         1.8577   -1.4754   -4.6432 O.co2     1 ATP        -0.8629
     12 O3A         4.2991   -1.3837   -3.9101 O.3       1 ATP        -0.8191
     13 O5'         2.5245   -1.6648   -2.1878 O.3       1 ATP        -0.5644
     14 C5'         2.2816   -0.2918   -1.9206 C.3       1 ATP         0.2062
     15 C4'         2.7248    0.0226   -0.4980 C.3       1 ATP         0.0971
     16 O4'         2.4697    1.4219   -0.2462 O.3       1 ATP        -0.3662
     17 C3'         1.9404   -0.7419    0.5596 C.3       1 ATP         0.0734
     18 O3'         2.7418   -0.8086    1.7389 O.3       1 ATP        -0.5671
     19 C2'         0.7477    0.1630    0.7858 C.3       1 ATP         0.0745
     20 O2'         0.1373   -0.0577    2.0407 O.3       1 ATP        -0.5794
     21 C1'         1.3733    1.5427    0.6747 C.3       1 ATP         0.3824
     22 N9          0.4520    2.5240    0.1767 N.pl3     1 ATP        -0.4324
     23 C8          0.2216    2.8192   -1.0985 C.ar      1 ATP         0.2662
     24 N7         -0.6906    3.7763   -1.2384 N.pl3     1 ATP        -0.4772
     25 C5         -1.0575    4.1037    0.0366 C.ar      1 ATP        -0.1305
     26 C6         -2.0291    5.0943    0.5330 C.ar      1 ATP         0.7186
     27 N6         -2.7093    5.8371   -0.2800 N.2       1 ATP        -0.8115
     28 N1         -2.1051    5.1136    1.9204 N.pl3     1 ATP        -0.8400
     29 C2         -1.3354    4.2774    2.7129 C.ar      1 ATP         0.6671
     30 N3         -0.4707    3.3945    2.2944 N.2       1 ATP        -0.5806
     31 C4         -0.3734    3.3525    0.9220 C.ar      1 ATP         0.2748
     32 HOG3        8.0776   -2.3015   -6.0906 H         1 ATP         0.4327
     33 HOB2        5.2148   -3.5776   -5.5453 H         1 ATP         0.4701
     34 H5'1        2.8432    0.3119   -2.6398 H         1 ATP         0.0401
     35 H5'2        1.2128   -0.0927   -2.0428 H         1 ATP         0.0401
     36 H4'         3.8044   -0.1397   -0.4040 H         1 ATP         0.1136
     37 H3'         1.6764   -1.7639    0.2728 H         1 ATP         0.0693
     38 HO3'        2.2232   -1.2979    2.3953 H         1 ATP         0.4124
     39 H2'        -0.0011    0.0027    0.0003 H         1 ATP         0.0854
     40 HO2'       -0.6141    0.5574    2.1082 H         1 ATP         0.4367
     41 H1'         1.7826    1.9024    1.6451 H         1 ATP         0.1343
     42 H8          0.7125    2.3429   -1.9292 H         1 ATP         0.3302
     43 HN62       -3.3217    6.4517    0.2629 H         1 ATP         0.4160
     44 H2         -1.5188    4.4223    3.7890 H         1 ATP         0.0756
     45 H45        -2.7470    5.7627    2.3665 H         1 ATP         0.4587
     46 H46        -1.0305    4.1680   -2.1054 H         1 ATP         0.5254
@<TRIPOS>BOND
     1    1    2 2
     2    1    3 1
     3    1    4 1
     4    1    8 1
     5    4   32 1
     6    5    6 2
     7    5    7 1
     8    5    8 1
     9    5   12 1
    10    7   33 1
    11    9   10 2
    12    9   11 1
    13    9   12 1
    14    9   13 1
    15   13   14 1
    16   14   15 1
    17   14   34 1
    18   14   35 1
    19   15   16 1
    20   15   17 1
    21   15   36 1
    22   16   21 1
    23   17   18 1
    24   17   19 1
    25   17   37 1
    26   18   38 1
    27   19   20 1
    28   19   21 1
    29   19   39 1
    30   20   40 1
    31   21   22 1
    32   21   41 1
    33   22   23 ar
    34   22   31 ar
    35   23   24 ar
    36   23   42 1
    37   24   25 ar
    38   24   46 1
    39   25   26 ar
    40   25   31 ar
    41   26   27 2
    42   26   28 ar
    43   27   43 1
    44   28   29 ar
    45   28   45 1
    46   29   30 ar
    47   29   44 1
    48   30   31 ar
@<TRIPOS>SUBSTRUCTURE
     1 ATP         1 GROUP 0 A     ****
@<TRIPOS>MOLECULE
[[[3,4-dihydroxy-5-(6-imino-7,8-dihydro-1~{H}-purin-8-ylium-9-yl)tetrahydrofuran-2-yl]methoxy-oxido-phosphoryl]oxy-hydroxy-phosphoryl] hydrogen phosphate
   46    48     1     0     0
SMALL
USER_CHARGES

@<TRIPOS>ATOM
      1 PG          7.3595   -2.1333   -5.0458 P.3       1 ATP         1.5595
      2 O1G         7.9102   -2.0443   -3.6399 O.co2     1 ATP        -0.8438
      3 O2G         7.9577   -1.3145   -6.1679 O.co2     1 ATP        -0.8438
      4 O3G         7.3463   -3.7020   -5.4988 O.3       1 ATP        -0.7800
      5 PB          4.5975   -2.5883   -4.1173 P.3       1 ATP         1.9223
      6 O1B         4.4570   -4.0676   -4.3227 O.2       1 ATP        -0.8953
      7 O2B         4.9399   -2.1360   -2.6035 O.3       1 ATP        -0.8165
      8 O3B         5.7496   -1.8762   -4.9997 O.3       1 ATP        -0.8247
      9 PA          3.0673   -0.0858   -4.4292 P.3       1 ATP         1.6157
     10 O1A         1.6266    0.2116   -4.7838 O.co2     1 ATP        -0.8629
     11 O2A         4.2011    0.5980   -5.1618 O.co2     1 ATP        -0.8629
     12 O3A         3.3063   -1.6991   -4.5069 O.3       1 ATP        -0.8191
     13 O5'         3.2903    0.1346   -2.8241 O.3       1 ATP        -0.5644
     14 C5'         2.2816   -0.2918   -1.9206 C.3       1 ATP         0.2062
     15 C4'         2.7248    0.0226   -0.4980 C.3       1 ATP         0.0971
     16 O4'         2.4697    1.4219   -0.2462 O.3       1 ATP        -0.3662
     17 C3'         1.9404   -0.7419    0.5596 C.3       1 ATP         0.0734
     18 O3'         2.7418   -0.8086    1.7389 O.3       1 ATP        -0.5671
     19 C2'         0.7477    0.1630    0.7858 C.3       1 ATP         0.0745
     20 O2'         0.1373   -0.0577    2.0407 O.3       1 ATP        -0.5794
     21 C1'         1.3733    1.5427    0.6747 C.3       1 ATP         0.3824
     22 N9          0.4520    2.5240    0.1767 N.pl3     1 ATP        -0.4324
     23 C8          0.2216    2.8192   -1.0985 C.ar      1 ATP         0.2662
     24 N7         -0.6906    3.7763   -1.2384 N.pl3     1 ATP        -0.4772
     25 C5         -1.0575    4.1037    0.0366 C.ar      1 ATP        -0.1305
     26 C6         -2.0291    5.0943    0.5330 C.ar      1 ATP         0.7186
     27 N6         -2.7093    5.8371   -0.2800 N.2       1 ATP        -0.8115
     28 N1         -2.1051    5.1136    1.9204 N.pl3     1 ATP        -0.8400
     29 C2         -1.3354    4.2774    2.7129 C.ar      1 ATP         0.6671
     30 N3         -0.4707    3.3945    2.2944 N.2       1 ATP        -0.5806
     31 C4         -0.3734    3.3525    0.9220 C.ar      1 ATP         0.2748
     32 HOG3        7.0136   -3.9265   -6.3939 H         1 ATP         0.4327
     33 HOB2        4.3119   -2.3663   -1.8859 H         1 ATP         0.4701
     34 H5'1        1.3514    0.2330   -2.1577 H         1 ATP         0.0401
     35 H5'2        2.1280   -1.3678   -2.0460 H         1 ATP         0.0401
     36 H4'         3.8044   -0.1397   -0.4040 H         1 ATP         0.1136
     37 H3'         1.6764   -1.7639    0.2728 H         1 ATP         0.0693
     38 HO3'        2.2232   -1.2979    2.3953 H         1 ATP         0.4124
     39 H2'        -0.0011    0.0027    0.0003 H         1 ATP         0.0854
     40 HO2'       -0.6141    0.5574    2.1082 H         1 ATP         0.4367
     41 H1'         1.7826    1.9024    1.6451 H         1 ATP         0.1343
     42 H8          0.7125    2.3429   -1.9292 H         1 ATP         0.3302
     43 HN62       -3.3217    6.4517    0.2629 H         1 ATP         0.4160
     44 H2         -1.5188    4.4223    3.7890 H         1 ATP         0.0756
     45 H45        -2.7470    5.7627    2.3665 H         1 ATP         0.4587
     46 H46        -1.0305    4.1680   -2.1054 H         1 ATP         0.5254
@<TRIPOS>BOND
     1    1    2 2
     2    1    3 1
     3    1    4 1
     4    1    8 1
     5    4   32 1
     6    5    6 2
     7    5    7 1
     8    5    8 1
     9    5   12 1
    10    7   33 1
    11    9   10 2
    12    9   11 1
    13    9   12 1
    14    9   13 1
    15   13   14 1
    16   14   15 1
    17   14   34 1
    18   14   35 1
    19   15   16 1
    20   15   17 1
    21   15   36 1
    22   16   21 1
    23   17   18 1
    24   17   19 1
    25   17   37 1
    26   18   38 1
    27   19   20 1
    28   19   21 1
    29   19   39 1
    30   20   40 1
    31   21   22 1
    32   21   41 1
    33   22   23 ar
    34   22   31 ar
    35   23   24 ar
    36   23   42 1
    37   24   25 ar
    38   24   46 1
    39   25   26 ar
    40   25   31 ar
    41   26   27 2
    42   26   28 ar
    43   27   43 1
    44   28   29 ar
    45   28   45 1
    46   29   30 ar
    47   29   44 1
    48   30   31 ar
@<TRIPOS>SUBSTRUCTURE
     1 ATP         1 GROUP 0 A     ****
@<TRIPOS>MOLECULE
[[[3,4-dihydroxy-5-(6-imino-7,8-dihydro-1~{H}-purin-8-ylium-9-yl)tetrahydrofuran-2-yl]methoxy-oxido-phosphoryl]oxy-hydroxy-phosphoryl] hydrogen phosphate
   46    48     1     0     0
SMALL
USER_CHARGES

@<TRIPOS>ATOM
      1 PG          6.5706    0.4092   -6.0427 P.3       1 ATP         1.5595
      2 O1G         7.2529    0.9338   -4.7990 O.co2     1 ATP        -0.8438
      3 O2G         6.3469    1.3032   -7.2419 O.co2     1 ATP        -0.8438
      4 O3G         7.3559   -0.9343   -6.5370 O.3       1 ATP        -0.7800
      5 PB          4.8246   -1.4165   -4.5208 P.3       1 ATP         1.9223
      6 O1B         5.5098   -2.7326   -4.7418 O.2       1 ATP        -0.8953
      7 O2B         5.1574   -0.6988   -3.1110 O.3       1 ATP        -0.8165
      8 O3B         5.1527   -0.2759   -5.6182 O.3       1 ATP        -0.8247
      9 PA          2.1371   -2.2715   -3.6563 P.3       1 ATP         1.6157
     10 O1A         2.4857   -3.7434   -3.7019 O.co2     1 ATP        -0.8629
     11 O2A         0.7457   -1.7949   -4.0121 O.co2     1 ATP        -0.8629
     12 O3A         3.2103   -1.4478   -4.5705 O.3       1 ATP        -0.8191
     13 O5'         2.5245   -1.6648   -2.1878 O.3       1 ATP        -0.5644
     14 C5'         2.2816   -0.2918   -1.9206 C.3       1 ATP         0.2062
     15 C4'         2.7248    0.0226   -0.4980 C.3       1 ATP         0.0971
     16 O4'         2.4697    1.4219   -0.2462 O.3       1 ATP        -0.3662
     17 C3'         1.9404   -0.7419    0.5596 C.3       1 ATP         0.0734
     18 O3'         2.7418   -0.8086    1.7389 O.3       1 ATP        -0.5671
     19 C2'         0.7477    0.1630    0.7858 C.3       1 ATP         0.0745
     20 O2'         0.1373   -0.0577    2.0407 O.3       1 ATP        -0.5794
     21 C1'         1.3733    1.5427    0.6747 C.3       1 ATP         0.3824
     22 N9          0.4520    2.5240    0.1767 N.pl3     1 ATP        -0.4324
     23 C8          0.2216    2.8192   -1.0985 C.ar      1 ATP         0.2662
     24 N7         -0.6906    3.7763   -1.2384 N.pl3     1 ATP        -0.4772
     25 C5         -1.0575    4.1037    0.0366 C.ar      1 ATP        -0.1305
     26 C6         -2.0291    5.0943    0.5330 C.ar      1 ATP         0.7186
     27 N6         -2.7093    5.8371   -0.2800 N.2       1 ATP        -0.8115
     28 N1         -2.1051    5.1136    1.9204 N.pl3     1 ATP        -0.8400
     29 C2         -1.3354    4.2774    2.7129 C.ar      1 ATP         0.6671
     30 N3         -0.4707    3.3945    2.2944 N.2       1 ATP        -0.5806
     31 C4         -0.3734    3.3525    0.9220 C.ar      1 ATP         0.2748
     32 HOG3        7.0311   -1.3963   -7.3391 H         1 ATP         0.4327
     33 HOB2        6.0873   -0.4629   -2.9065 H         1 ATP         0.4701
     34 H5'1        2.8432    0.3119   -2.6398 H         1 ATP         0.0401
     35 H5'2        1.2128   -0.0927   -2.0428 H         1 ATP         0.0401
     36 H4'         3.8044   -0.1397   -0.4040 H         1 ATP         0.1136
     37 H3'         1.6764   -1.7639    0.2728 H         1 ATP         0.0693
     38 HO3'        2.2232   -1.2979    2.3953 H         1 ATP         0.4124
     39 H2'        -0.0011    0.0027    0.0003 H         1 ATP         0.0854
     40 HO2'       -0.1563   -0.9855    2.0596 H         1 ATP         0.4367
     41 H1'         1.7826    1.9024    1.6451 H         1 ATP         0.1343
     42 H8          0.7125    2.3429   -1.9292 H         1 ATP         0.3302
     43 HN62       -3.3217    6.4517    0.2629 H         1 ATP         0.4160
     44 H2         -1.5188    4.4223    3.7890 H         1 ATP         0.0756
     45 H45        -2.7470    5.7627    2.3665 H         1 ATP         0.4587
     46 H46        -1.0305    4.1680   -2.1054 H         1 ATP         0.5254
@<TRIPOS>BOND
     1    1    2 2
     2    1    3 1
     3    1    4 1
     4    1    8 1
     5    4   32 1
     6    5    6 2
     7    5    7 1
     8    5    8 1
     9    5   12 1
    10    7   33 1
    11    9   10 2
    12    9   11 1
    13    9   12 1
    14    9   13 1
    15   13   14 1
    16   14   15 1
    17   14   34 1
    18   14   35 1
    19   15   16 1
    20   15   17 1
    21   15   36 1
    22   16   21 1
    23   17   18 1
    24   17   19 1
    25   17   37 1
    26   18   38 1
    27   19   20 1
    28   19   21 1
    29   19   39 1
    30   20   40 1
    31   21   22 1
    32   21   41 1
    33   22   23 ar
    34   22   31 ar
    35   23   24 ar
    36   23   42 1
    37   24   25 ar
    38   24   46 1
    39   25   26 ar
    40   25   31 ar
    41   26   27 2
    42   26   28 ar
    43   27   43 1
    44   28   29 ar
    45   28   45 1
    46   29   30 ar
    47   29   44 1
    48   30   31 ar
@<TRIPOS>SUBSTRUCTURE
     1 ATP         1 GROUP 0 A     ****
@<TRIPOS>MOLECULE
[[[3,4-dihydroxy-5-(6-imino-7,8-dihydro-1~{H}-purin-8-ylium-9-yl)tetrahydrofuran-2-yl]methoxy-oxido-phosphoryl]oxy-hydroxy-phosphoryl] hydrogen phosphate
   46    48     1     0     0
SMALL
USER_CHARGES

@<TRIPOS>ATOM
      1 PG         -0.3221   -1.7612   -6.1716 P.3       1 ATP         1.5595
      2 O1G         0.3320   -1.9369   -7.5240 O.co2     1 ATP        -0.8438
      3 O2G        -1.6399   -2.4314   -5.8529 O.co2     1 ATP        -0.8438
      4 O3G         0.7585   -2.1669   -5.0166 O.3       1 ATP        -0.7800
      5 PB          0.6798    0.9946   -5.8556 P.3       1 ATP         1.9223
      6 O1B         1.3643    1.2125   -7.1725 O.2       1 ATP        -0.8953
      7 O2B        -0.0975    2.2835   -5.2658 O.3       1 ATP        -0.8165
      8 O3B        -0.4437   -0.1675   -5.8468 O.3       1 ATP        -0.8247
      9 PA          2.9230    1.2546   -3.9578 P.3       1 ATP         1.6157
     10 O1A         2.4619    2.5263   -3.2796 O.co2     1 ATP        -0.8629
     11 O2A         4.0434    1.2827   -4.9744 O.co2     1 ATP        -0.8629
     12 O3A         1.6316    0.5231   -4.6386 O.3       1 ATP        -0.8191
     13 O5'         3.2903    0.1346   -2.8241 O.3       1 ATP        -0.5644
     14 C5'         2.2816   -0.2918   -1.9206 C.3       1 ATP         0.2062
     15 C4'         2.7248    0.0226   -0.4980 C.3       1 ATP         0.0971
     16 O4'         2.4697    1.4219   -0.2462 O.3       1 ATP        -0.3662
     17 C3'         1.9404   -0.7419    0.5596 C.3       1 ATP         0.0734
     18 O3'         2.7418   -0.8086    1.7389 O.3       1 ATP        -0.5671
     19 C2'         0.7477    0.1630    0.7858 C.3       1 ATP         0.0745
     20 O2'         0.1373   -0.0577    2.0407 O.3       1 ATP        -0.5794
     21 C1'         1.3733    1.5427    0.6747 C.3       1 ATP         0.3824
     22 N9          0.4520    2.5240    0.1767 N.pl3     1 ATP        -0.4324
     23 C8         -0.2004    2.4829   -0.9804 C.ar      1 ATP         0.2662
     24 N7         -0.9830    3.5431   -1.1568 N.pl3     1 ATP        -0.4772
     25 C5         -0.8095    4.3012   -0.0331 C.ar      1 ATP        -0.1305
     26 C6         -1.4065    5.5904    0.3585 C.ar      1 ATP         0.7186
     27 N6         -2.2501    6.2030   -0.4084 N.2       1 ATP        -0.8115
     28 N1         -0.9585    6.0272    1.5994 N.pl3     1 ATP        -0.8400
     29 C2         -0.0508    5.3009    2.3532 C.ar      1 ATP         0.6671
     30 N3          0.4890    4.1592    2.0257 N.2       1 ATP        -0.5806
     31 C4          0.0637    3.7006    0.7995 C.ar      1 ATP         0.2748
     32 HOG3        0.4828   -2.1054   -4.0772 H         1 ATP         0.4327
     33 HOB2        0.4121    3.1007   -5.0794 H         1 ATP         0.4701
     34 H5'1        1.3514    0.2330   -2.1577 H         1 ATP         0.0401
     35 H5'2        2.1280   -1.3678   -2.0460 H         1 ATP         0.0401
     36 H4'         3.8044   -0.1397   -0.4040 H         1 ATP         0.1136
     37 H3'         1.6764   -1.7639    0.2728 H         1 ATP         0.0693
     38 HO3'        2.2232   -1.2979    2.3953 H         1 ATP         0.4124
     39 H2'        -0.0011    0.0027    0.0003 H         1 ATP         0.0854
     40 HO2'       -0.6141    0.5574    2.1082 H         1 ATP         0.4367
     41 H1'         1.7826    1.9024    1.6451 H         1 ATP         0.1343
     42 H8         -0.1116    1.6863   -1.6984 H         1 ATP         0.3302
     43 HN62       -2.5420    7.0730    0.0447 H         1 ATP         0.4160
     44 H2          0.1969    5.7893    3.3086 H         1 ATP         0.0756
     45 H45        -1.3097    6.9080    1.9642 H         1 ATP         0.4587
     46 H46        -1.5735    3.7351   -1.9538 H         1 ATP         0.5254
@<TRIPOS>BOND
     1    1    2 2
     2    1    3 1
     3    1    4 1
     4    1    8 1
     5    4   32 1
     6    5    6 2
     7    5    7 1
     8    5    8 1
     9    5   12 1
    10    7   33 1
    11    9   10 2
    12    9   11 1
    13    9   12 1
    14    9   13 1
    15   13   14 1
    16   14   15 1
    17   14   34 1
    18   14   35 1
    19   15   16 1
    20   15   17 1
    21   15   36 1
    22   16   21 1
    23   17   18 1
    24   17   19 1
    25   17   37 1
    26   18   38 1
    27   19   20 1
    28   19   21 1
    29   19   39 1
    30   20   40 1
    31   21   22 1
    32   21   41 1
    33   22   23 ar
    34   22   31 ar
    35   23   24 ar
    36   23   42 1
    37   24   25 ar
    38   24   46 1
    39   25   26 ar
    40   25   31 ar
    41   26   27 2
    42   26   28 ar
    43   27   43 1
    44   28   29 ar
    45   28   45 1
    46   29   30 ar
    47   29   44 1
    48   30   31 ar
@<TRIPOS>SUBSTRUCTURE
     1 ATP         1 GROUP 0 A     ****
@<TRIPOS>MOLECULE
[[[3,4-dihydroxy-5-(6-imino-7,8-dihydro-1~{H}-purin-8-ylium-9-yl)tetrahydrofuran-2-yl]methoxy-oxido-phosphoryl]oxy-hydroxy-phosphoryl] hydrogen phosphate
   46    48     1     0     0
SMALL
USER_CHARGES

@<TRIPOS>ATOM
      1 PG          0.6222   -2.7197   -7.8438 P.3       1 ATP         1.5595
      2 O1G         1.1995   -2.1166   -9.1050 O.co2     1 ATP        -0.8438
      3 O2G        -0.8730   -2.7756   -7.6232 O.co2     1 ATP        -0.8438
      4 O3G         1.2293   -4.2248   -7.6640 O.3       1 ATP        -0.7800
      5 PB          2.8856   -1.8264   -6.1775 P.3       1 ATP         1.9223
      6 O1B         3.6666   -3.0991   -6.0338 O.2       1 ATP        -0.8953
      7 O2B         3.4318   -0.8114   -7.3110 O.3       1 ATP        -0.8165
      8 O3B         1.3244   -2.0143   -6.5517 O.3       1 ATP        -0.8247
      9 PA          3.9552   -0.2066   -3.9564 P.3       1 ATP         1.6157
     10 O1A         4.6399    0.8510   -4.7947 O.co2     1 ATP        -0.8629
     11 O2A         4.7577   -1.2974   -3.2811 O.co2     1 ATP        -0.8629
     12 O3A         2.7844   -0.9106   -4.8506 O.3       1 ATP        -0.8191
     13 O5'         3.0213    0.5153   -2.8245 O.3       1 ATP        -0.5644
     14 C5'         2.2816   -0.2918   -1.9206 C.3       1 ATP         0.2062
     15 C4'         2.7248    0.0226   -0.4980 C.3       1 ATP         0.0971
     16 O4'         2.4697    1.4219   -0.2462 O.3       1 ATP        -0.3662
     17 C3'         1.9404   -0.7419    0.5596 C.3       1 ATP         0.0734
     18 O3'         2.7418   -0.8086    1.7389 O.3       1 ATP        -0.5671
     19 C2'         0.7477    0.1630    0.7858 C.3       1 ATP         0.0745
     20 O2'         0.1373   -0.0577    2.0407 O.3       1 ATP        -0.5794
     21 C1'         1.3733    1.5427    0.6747 C.3       1 ATP         0.3824
     22 N9          0.4520    2.5240    0.1767 N.pl3     1 ATP        -0.4324
     23 C8          0.2216    2.8192   -1.0985 C.ar      1 ATP         0.2662
     24 N7         -0.6906    3.7763   -1.2384 N.pl3     1 ATP        -0.4772
     25 C5         -1.0575    4.1037    0.0366 C.ar      1 ATP        -0.1305
     26 C6         -2.0291    5.0943    0.5330 C.ar      1 ATP         0.7186
     27 N6         -2.7093    5.8371   -0.2800 N.2       1 ATP        -0.8115
     28 N1         -2.1051    5.1136    1.9204 N.pl3     1 ATP        -0.8400
     29 C2         -1.3354    4.2774    2.7129 C.ar      1 ATP         0.6671
     30 N3         -0.4707    3.3945    2.2944 N.2       1 ATP        -0.5806
     31 C4         -0.3734    3.3525    0.9220 C.ar      1 ATP         0.2748
     32 HOG3        0.9483   -4.7516   -6.8858 H         1 ATP         0.4327
     33 HOB2        3.4678   -1.1156   -8.2429 H         1 ATP         0.4701
     34 H5'1        1.2163   -0.0770   -2.0471 H         1 ATP         0.0401
     35 H5'2        2.4655   -1.3443   -2.1563 H         1 ATP         0.0401
     36 H4'         3.8044   -0.1397   -0.4040 H         1 ATP         0.1136
     37 H3'         1.6764   -1.7639    0.2728 H         1 ATP         0.0693
     38 HO3'        2.2232   -1.2979    2.3953 H         1 ATP         0.4124
     39 H2'        -0.0011    0.0027    0.0003 H         1 ATP         0.0854
     40 HO2'       -0.6141    0.5574    2.1082 H         1 ATP         0.4367
     41 H1'         1.7826    1.9024    1.6451 H         1 ATP         0.1343
     42 H8          0.7125    2.3429   -1.9292 H         1 ATP         0.3302
     43 HN62       -3.3217    6.4517    0.2629 H         1 ATP         0.4160
     44 H2         -1.5188    4.4223    3.7890 H         1 ATP         0.0756
     45 H45        -2.7470    5.7627    2.3665 H         1 ATP         0.4587
     46 H46        -1.0305    4.1680   -2.1054 H         1 ATP         0.5254
@<TRIPOS>BOND
     1    1    2 2
     2    1    3 1
     3    1    4 1
     4    1    8 1
     5    4   32 1
     6    5    6 2
     7    5    7 1
     8    5    8 1
     9    5   12 1
    10    7   33 1
    11    9   10 2
    12    9   11 1
    13    9   12 1
    14    9   13 1
    15   13   14 1
    16   14   15 1
    17   14   34 1
    18   14   35 1
    19   15   16 1
    20   15   17 1
    21   15   36 1
    22   16   21 1
    23   17   18 1
    24   17   19 1
    25   17   37 1
    26   18   38 1
    27   19   20 1
    28   19   21 1
    29   19   39 1
    30   20   40 1
    31   21   22 1
    32   21   41 1
    33   22   23 ar
    34   22   31 ar
    35   23   24 ar
    36   23   42 1
    37   24   25 ar
    38   24   46 1
    39   25   26 ar
    40   25   31 ar
    41   26   27 2
    42   26   28 ar
    43   27   43 1
    44   28   29 ar
    45   28   45 1
    46   29   30 ar
    47   29   44 1
    48   30   31 ar
@<TRIPOS>SUBSTRUCTURE
     1 ATP         1 GROUP 0 A     ****
@<TRIPOS>MOLECULE
[[[3,4-dihydroxy-5-(6-imino-7,8-dihydro-1~{H}-purin-8-ylium-9-yl)tetrahydrofuran-2-yl]methoxy-oxido-phosphoryl]oxy-hydroxy-phosphoryl] hydrogen phosphate
   46    48     1     0     0
SMALL
USER_CHARGES

@<TRIPOS>ATOM
      1 PG          6.0302   -3.8625   -2.6727 P.3       1 ATP         1.5595
      2 O1G         5.9217   -3.6584   -1.1780 O.co2     1 ATP        -0.8438
      3 O2G         6.8383   -5.0062   -3.2441 O.co2     1 ATP        -0.8438
      4 O3G         4.5231   -3.9298   -3.2974 O.3       1 ATP        -0.7800
      5 PB          5.9205   -0.9718   -3.2467 P.3       1 ATP         1.9223
      6 O1B         5.8977   -0.3965   -1.8615 O.2       1 ATP        -0.8953
      7 O2B         6.7820   -0.1293   -4.3245 O.3       1 ATP        -0.8165
      8 O3B         6.5210   -2.4681   -3.3618 O.3       1 ATP        -0.8247
      9 PA          3.3342   -0.0516   -4.3262 P.3       1 ATP         1.6157
     10 O1A         2.1153   -0.7748   -4.8565 O.co2     1 ATP        -0.8629
     11 O2A         3.9830    1.0583   -5.1244 O.co2     1 ATP        -0.8629
     12 O3A         4.4805   -1.1538   -3.9557 O.3       1 ATP        -0.8191
     13 O5'         3.0213    0.5153   -2.8245 O.3       1 ATP        -0.5644
     14 C5'         2.2816   -0.2918   -1.9206 C.3       1 ATP         0.2062
     15 C4'         2.7248    0.0226   -0.4980 C.3       1 ATP         0.0971
     16 O4'         2.4697    1.4219   -0.2462 O.3       1 ATP        -0.3662
     17 C3'         1.9404   -0.7419    0.5596 C.3       1 ATP         0.0734
     18 O3'         2.7418   -0.8086    1.7389 O.3       1 ATP        -0.5671
     19 C2'         0.7477    0.1630    0.7858 C.3       1 ATP         0.0745
     20 O2'         0.1373   -0.0577    2.0407 O.3       1 ATP        -0.5794
     21 C1'         1.3733    1.5427    0.6747 C.3       1 ATP         0.3824
     22 N9          0.4520    2.5240    0.1767 N.pl3     1 ATP        -0.4324
     23 C8         -0.2004    2.4829   -0.9804 C.ar      1 ATP         0.2662
     24 N7         -0.9830    3.5431   -1.1568 N.pl3     1 ATP        -0.4772
     25 C5         -0.8095    4.3012   -0.0331 C.ar      1 ATP        -0.1305
     26 C6         -1.4065    5.5904    0.3585 C.ar      1 ATP         0.7186
     27 N6         -2.2501    6.2030   -0.4084 N.2       1 ATP        -0.8115
     28 N1         -0.9585    6.0272    1.5994 N.pl3     1 ATP        -0.8400
     29 C2         -0.0508    5.3009    2.3532 C.ar      1 ATP         0.6671
     30 N3          0.4890    4.1592    2.0257 N.2       1 ATP        -0.5806
     31 C4          0.0637    3.7006    0.7995 C.ar      1 ATP         0.2748
     32 HOG3        4.4241   -4.0598   -4.2646 H         1 ATP         0.4327
     33 HOB2        6.5297    0.8001   -4.5114 H         1 ATP         0.4701
     34 H5'1        1.2163   -0.0770   -2.0471 H         1 ATP         0.0401
     35 H5'2        2.4655   -1.3443   -2.1563 H         1 ATP         0.0401
     36 H4'         3.8044   -0.1397   -0.4040 H         1 ATP         0.1136
     37 H3'         1.6764   -1.7639    0.2728 H         1 ATP         0.0693
     38 HO3'        2.2232   -1.2979    2.3953 H         1 ATP         0.4124
     39 H2'        -0.0011    0.0027    0.0003 H         1 ATP         0.0854
     40 HO2'       -0.1563   -0.9855    2.0596 H         1 ATP         0.4367
     41 H1'         1.7826    1.9024    1.6451 H         1 ATP         0.1343
     42 H8         -0.1116    1.6863   -1.6984 H         1 ATP         0.3302
     43 HN62       -2.5420    7.0730    0.0447 H         1 ATP         0.4160
     44 H2          0.1969    5.7893    3.3086 H         1 ATP         0.0756
     45 H45        -1.3097    6.9080    1.9642 H         1 ATP         0.4587
     46 H46        -1.5735    3.7351   -1.9538 H         1 ATP         0.5254
@<TRIPOS>BOND
     1    1    2 2
     2    1    3 1
     3    1    4 1
     4    1    8 1
     5    4   32 1
     6    5    6 2
     7    5    7 1
     8    5    8 1
     9    5   12 1
    10    7   33 1
    11    9   10 2
    12    9   11 1
    13    9   12 1
    14    9   13 1
    15   13   14 1
    16   14   15 1
    17   14   34 1
    18   14   35 1
    19   15   16 1
    20   15   17 1
    21   15   36 1
    22   16   21 1
    23   17   18 1
    24   17   19 1
    25   17   37 1
    26   18   38 1
    27   19   20 1
    28   19   21 1
    29   19   39 1
    30   20   40 1
    31   21   22 1
    32   21   41 1
    33   22   23 ar
    34   22   31 ar
    35   23   24 ar
    36   23   42 1
    37   24   25 ar
    38   24   46 1
    39   25   26 ar
    40   25   31 ar
    41   26   27 2
    42   26   28 ar
    43   27   43 1
    44   28   29 ar
    45   28   45 1
    46   29   30 ar
    47   29   44 1
    48   30   31 ar
@<TRIPOS>SUBSTRUCTURE
     1 ATP         1 GROUP 0 A     ****
@<TRIPOS>MOLECULE
[[[3,4-dihydroxy-5-(6-imino-7,8-dihydro-1~{H}-purin-8-ylium-9-yl)tetrahydrofuran-2-yl]methoxy-oxido-phosphoryl]oxy-hydroxy-phosphoryl] hydrogen phosphate
   46    48     1     0     0
SMALL
USER_CHARGES

@<TRIPOS>ATOM
      1 PG          3.9975   -4.5543   -6.3202 P.3       1 ATP         1.5595
      2 O1G         4.5690   -5.4969   -5.2845 O.co2     1 ATP        -0.8438
      3 O2G         4.7311   -4.2856   -7.6152 O.co2     1 ATP        -0.8438
      4 O3G         2.4777   -5.0344   -6.6753 O.3       1 ATP        -0.7800
      5 PB          2.8856   -1.8264   -6.1775 P.3       1 ATP         1.9223
      6 O1B         3.5322   -1.1816   -7.3676 O.2       1 ATP        -0.8953
      7 O2B         1.3706   -2.3384   -6.4142 O.3       1 ATP        -0.8165
      8 O3B         3.6459   -3.1322   -5.6031 O.3       1 ATP        -0.8247
      9 PA          3.9552   -0.2066   -3.9564 P.3       1 ATP         1.6157
     10 O1A         4.6399    0.8510   -4.7947 O.co2     1 ATP        -0.8629
     11 O2A         4.7577   -1.2974   -3.2811 O.co2     1 ATP        -0.8629
     12 O3A         2.7844   -0.9106   -4.8506 O.3       1 ATP        -0.8191
     13 O5'         3.0213    0.5153   -2.8245 O.3       1 ATP        -0.5644
     14 C5'         2.2816   -0.2918   -1.9206 C.3       1 ATP         0.2062
     15 C4'         2.7248    0.0226   -0.4980 C.3       1 ATP         0.0971
     16 O4'         2.4697    1.4219   -0.2462 O.3       1 ATP        -0.3662
     17 C3'         1.9404   -0.7419    0.5596 C.3       1 ATP         0.0734
     18 O3'         2.7418   -0.8086    1.7389 O.3       1 ATP        -0.5671
     19 C2'         0.7477    0.1630    0.7858 C.3       1 ATP         0.0745
     20 O2'         0.1373   -0.0577    2.0407 O.3       1 ATP        -0.5794
     21 C1'         1.3733    1.5427    0.6747 C.3       1 ATP         0.3824
     22 N9          0.4520    2.5240    0.1767 N.pl3     1 ATP        -0.4324
     23 C8          0.2216    2.8192   -1.0985 C.ar      1 ATP         0.2662
     24 N7         -0.6906    3.7763   -1.2384 N.pl3     1 ATP        -0.4772
     25 C5         -1.0575    4.1037    0.0366 C.ar      1 ATP        -0.1305
     26 C6         -2.0291    5.0943    0.5330 C.ar      1 ATP         0.7186
     27 N6         -2.7093    5.8371   -0.2800 N.2       1 ATP        -0.8115
     28 N1         -2.1051    5.1136    1.9204 N.pl3     1 ATP        -0.8400
     29 C2         -1.3354    4.2774    2.7129 C.ar      1 ATP         0.6671
     30 N3         -0.4707    3.3945    2.2944 N.2       1 ATP        -0.5806
     31 C4         -0.3734    3.3525    0.9220 C.ar      1 ATP         0.2748
     32 HOG3        1.9683   -4.5197   -7.3369 H         1 ATP         0.4327
     33 HOB2        0.6839   -1.6864   -6.6705 H         1 ATP         0.4701
     34 H5'1        1.2163   -0.0770   -2.0471 H         1 ATP         0.0401
     35 H5'2        2.4655   -1.3443   -2.1563 H         1 ATP         0.0401
     36 H4'         3.8044   -0.1397   -0.4040 H         1 ATP         0.1136
     37 H3'         1.6764   -1.7639    0.2728 H         1 ATP         0.0693
     38 HO3'        2.2232   -1.2979    2.3953 H         1 ATP         0.4124
     39 H2'        -0.0011    0.0027    0.0003 H         1 ATP         0.0854
     40 HO2'       -0.6141    0.5574    2.1082 H         1 ATP         0.4367
     41 H1'         1.7826    1.9024    1.6451 H         1 ATP         0.1343
     42 H8          0.7125    2.3429   -1.9292 H         1 ATP         0.3302
     43 HN62       -3.3217    6.4517    0.2629 H         1 ATP         0.4160
     44 H2         -1.5188    4.4223    3.7890 H         1 ATP         0.0756
     45 H45        -2.7470    5.7627    2.3665 H         1 ATP         0.4587
     46 H46        -1.0305    4.1680   -2.1054 H         1 ATP         0.5254
@<TRIPOS>BOND
     1    1    2 2
     2    1    3 1
     3    1    4 1
     4    1    8 1
     5    4   32 1
     6    5    6 2
     7    5    7 1
     8    5    8 1
     9    5   12 1
    10    7   33 1
    11    9   10 2
    12    9   11 1
    13    9   12 1
    14    9   13 1
    15   13   14 1
    16   14   15 1
    17   14   34 1
    18   14   35 1
    19   15   16 1
    20   15   17 1
    21   15   36 1
    22   16   21 1
    23   17   18 1
    24   17   19 1
    25   17   37 1
    26   18   38 1
    27   19   20 1
    28   19   21 1
    29   19   39 1
    30   20   40 1
    31   21   22 1
    32   21   41 1
    33   22   23 ar
    34   22   31 ar
    35   23   24 ar
    36   23   42 1
    37   24   25 ar
    38   24   46 1
    39   25   26 ar
    40   25   31 ar
    41   26   27 2
    42   26   28 ar
    43   27   43 1
    44   28   29 ar
    45   28   45 1
    46   29   30 ar
    47   29   44 1
    48   30   31 ar
@<TRIPOS>SUBSTRUCTURE
     1 ATP         1 GROUP 0 A     ****
@<TRIPOS>MOLECULE
[[[3,4-dihydroxy-5-(6-imino-7,8-dihydro-1~{H}-purin-8-ylium-9-yl)tetrahydrofuran-2-yl]methoxy-oxido-phosphoryl]oxy-hydroxy-phosphoryl] hydrogen phosphate
   46    48     1     0     0
SMALL
USER_CHARGES

@<TRIPOS>ATOM
      1 PG          6.6806    1.0027   -4.0480 P.3       1 ATP         1.5595
      2 O1G         8.1271    1.2996   -3.7207 O.co2     1 ATP        -0.8438
      3 O2G         5.5845    1.2763   -3.0424 O.co2     1 ATP        -0.8438
      4 O3G         6.3007    1.7549   -5.4465 O.3       1 ATP        -0.7800
      5 PB          5.3037   -1.3495   -5.1747 P.3       1 ATP         1.9223
      6 O1B         4.7378   -0.7809   -6.4423 O.2       1 ATP        -0.8953
      7 O2B         5.8423   -2.8697   -5.2859 O.3       1 ATP        -0.8165
      8 O3B         6.5608   -0.5419   -4.5581 O.3       1 ATP        -0.8247
      9 PA          2.8603   -2.1314   -3.7189 P.3       1 ATP         1.6157
     10 O1A         3.0799   -3.6282   -3.7534 O.co2     1 ATP        -0.8629
     11 O2A         1.8577   -1.4754   -4.6432 O.co2     1 ATP        -0.8629
     12 O3A         4.2991   -1.3837   -3.9101 O.3       1 ATP        -0.8191
     13 O5'         2.5245   -1.6648   -2.1878 O.3       1 ATP        -0.5644
     14 C5'         2.2816   -0.2918   -1.9206 C.3       1 ATP         0.2062
     15 C4'         2.7248    0.0226   -0.4980 C.3       1 ATP         0.0971
     16 O4'         2.4697    1.4219   -0.2462 O.3       1 ATP        -0.3662
     17 C3'         1.9404   -0.7419    0.5596 C.3       1 ATP         0.0734
     18 O3'         2.7418   -0.8086    1.7389 O.3       1 ATP        -0.5671
     19 C2'         0.7477    0.1630    0.7858 C.3       1 ATP         0.0745
     20 O2'         0.1373   -0.0577    2.0407 O.3       1 ATP        -0.5794
     21 C1'         1.3733    1.5427    0.6747 C.3       1 ATP         0.3824
     22 N9          0.4520    2.5240    0.1767 N.pl3     1 ATP        -0.4324
     23 C8         -0.2004    2.4829   -0.9804 C.ar      1 ATP         0.2662
     24 N7         -0.9830    3.5431   -1.1568 N.pl3     1 ATP        -0.4772
     25 C5         -0.8095    4.3012   -0.0331 C.ar      1 ATP        -0.1305
     26 C6         -1.4065    5.5904    0.3585 C.ar      1 ATP         0.7186
     27 N6         -2.2501    6.2030   -0.4084 N.2       1 ATP        -0.8115
     28 N1         -0.9585    6.0272    1.5994 N.pl3     1 ATP        -0.8400
     29 C2         -0.0508    5.3009    2.3532 C.ar      1 ATP         0.6671
     30 N3          0.4890    4.1592    2.0257 N.2       1 ATP        -0.5806
     31 C4          0.0637    3.7006    0.7995 C.ar      1 ATP         0.2748
     32 HOG3        5.3892    1.6583   -5.7958 H         1 ATP         0.4327
     33 HOB2        5.2148   -3.5776   -5.5453 H         1 ATP         0.4701
     34 H5'1        2.8432    0.3119   -2.6398 H         1 ATP         0.0401
     35 H5'2        1.2128   -0.0927   -2.0428 H         1 ATP         0.0401
     36 H4'         3.8044   -0.1397   -0.4040 H         1 ATP         0.1136
     37 H3'         1.6764   -1.7639    0.2728 H         1 ATP         0.0693
     38 HO3'        2.2232   -1.2979    2.3953 H         1 ATP         0.4124
     39 H2'        -0.0011    0.0027    0.0003 H         1 ATP         0.0854
     40 HO2'       -0.1563   -0.9855    2.0596 H         1 ATP         0.4367
     41 H1'         1.7826    1.9024    1.6451 H         1 ATP         0.1343
     42 H8         -0.1116    1.6863   -1.6984 H         1 ATP         0.3302
     43 HN62       -2.5420    7.0730    0.0447 H         1 ATP         0.4160
     44 H2          0.1969    5.7893    3.3086 H         1 ATP         0.0756
     45 H45        -1.3097    6.9080    1.9642 H         1 ATP         0.4587
     46 H46        -1.5735    3.7351   -1.9538 H         1 ATP         0.5254
@<TRIPOS>BOND
     1    1    2 2
     2    1    3 1
     3    1    4 1
     4    1    8 1
     5    4   32 1
     6    5    6 2
     7    5    7 1
     8    5    8 1
     9    5   12 1
    10    7   33 1
    11    9   10 2
    12    9   11 1
    13    9   12 1
    14    9   13 1
    15   13   14 1
    16   14   15 1
    17   14   34 1
    18   14   35 1
    19   15   16 1
    20   15   17 1
    21   15   36 1
    22   16   21 1
    23   17   18 1
    24   17   19 1
    25   17   37 1
    26   18   38 1
    27   19   20 1
    28   19   21 1
    29   19   39 1
    30   20   40 1
    31   21   22 1
    32   21   41 1
    33   22   23 ar
    34   22   31 ar
    35   23   24 ar
    36   23   42 1
    37   24   25 ar
    38   24   46 1
    39   25   26 ar
    40   25   31 ar
    41   26   27 2
    42   26   28 ar
    43   27   43 1
    44   28   29 ar
    45   28   45 1
    46   29   30 ar
    47   29   44 1
    48   30   31 ar
@<TRIPOS>SUBSTRUCTURE
     1 ATP         1 GROUP 0 A     ****
@<TRIPOS>MOLECULE
[[[3,4-dihydroxy-5-(6-imino-7,8-dihydro-1~{H}-purin-8-ylium-9-yl)tetrahydrofuran-2-yl]methoxy-oxido-phosphoryl]oxy-hydroxy-phosphoryl] hydrogen phosphate
   46    48     1     0     0
SMALL
USER_CHARGES

@<TRIPOS>ATOM
      1 PG          1.6530    3.5699   -6.5555 P.3       1 ATP         1.5595
      2 O1G         2.2987    3.9989   -7.8543 O.co2     1 ATP        -0.8438
      3 O2G         2.3958    3.6857   -5.2432 O.co2     1 ATP        -0.8438
      4 O3G         0.2203    4.3395   -6.4100 O.3       1 ATP        -0.7800
      5 PB          0.2024    1.1404   -5.7240 P.3       1 ATP         1.9223
      6 O1B        -1.1476    1.7027   -5.3896 O.2       1 ATP        -0.8953
      7 O2B         0.1830   -0.3103   -6.4371 O.3       1 ATP        -0.8165
      8 O3B         1.0983    2.0449   -6.7200 O.3       1 ATP        -0.8247
      9 PA          2.7406    0.3767   -4.4296 P.3       1 ATP         1.6157
     10 O1A         3.6419    1.3302   -5.1835 O.co2     1 ATP        -0.8629
     11 O2A         2.7082   -1.0955   -4.7781 O.co2     1 ATP        -0.8629
     12 O3A         1.2118    0.9483   -4.4776 O.3       1 ATP        -0.8191
     13 O5'         3.0213    0.5153   -2.8245 O.3       1 ATP        -0.5644
     14 C5'         2.2816   -0.2918   -1.9206 C.3       1 ATP         0.2062
     15 C4'         2.7248    0.0226   -0.4980 C.3       1 ATP         0.0971
     16 O4'         2.4697    1.4219   -0.2462 O.3       1 ATP        -0.3662
     17 C3'         1.9404   -0.7419    0.5596 C.3       1 ATP         0.0734
     18 O3'         2.7418   -0.8086    1.7389 O.3       1 ATP        -0.5671
     19 C2'         0.7477    0.1630    0.7858 C.3       1 ATP         0.0745
     20 O2'         0.1373   -0.0577    2.0407 O.3       1 ATP        -0.5794
     21 C1'         1.3733    1.5427    0.6747 C.3       1 ATP         0.3824
     22 N9          0.4520    2.5240    0.1767 N.pl3     1 ATP        -0.4324
     23 C8          0.2216    2.8192   -1.0985 C.ar      1 ATP         0.2662
     24 N7         -0.6906    3.7763   -1.2384 N.pl3     1 ATP        -0.4772
     25 C5         -1.0575    4.1037    0.0366 C.ar      1 ATP        -0.1305
     26 C6         -2.0291    5.0943    0.5330 C.ar      1 ATP         0.7186
     27 N6         -2.7093    5.8371   -0.2800 N.2       1 ATP        -0.8115
     28 N1         -2.1051    5.1136    1.9204 N.pl3     1 ATP        -0.8400
     29 C2         -1.3354    4.2774    2.7129 C.ar      1 ATP         0.6671
     30 N3         -0.4707    3.3945    2.2944 N.2       1 ATP        -0.5806
     31 C4         -0.3734    3.3525    0.9220 C.ar      1 ATP         0.2748
     32 HOG3       -0.3242    4.1653   -5.6129 H         1 ATP         0.4327
     33 HOB2       -0.2231   -1.0668   -5.9628 H         1 ATP         0.4701
     34 H5'1        1.2163   -0.0770   -2.0471 H         1 ATP         0.0401
     35 H5'2        2.4655   -1.3443   -2.1563 H         1 ATP         0.0401
     36 H4'         3.8044   -0.1397   -0.4040 H         1 ATP         0.1136
     37 H3'         1.6764   -1.7639    0.2728 H         1 ATP         0.0693
     38 HO3'        3.5554   -1.2733    1.4914 H         1 ATP         0.4124
     39 H2'        -0.0011    0.0027    0.0003 H         1 ATP         0.0854
     40 HO2'       -0.6141    0.5574    2.1082 H         1 ATP         0.4367
     41 H1'         1.7826    1.9024    1.6451 H         1 ATP         0.1343
     42 H8          0.7125    2.3429   -1.9292 H         1 ATP         0.3302
     43 HN62       -3.3217    6.4517    0.2629 H         1 ATP         0.4160
     44 H2         -1.5188    4.4223    3.7890 H         1 ATP         0.0756
     45 H45        -2.7470    5.7627    2.3665 H         1 ATP         0.4587
     46 H46        -1.0305    4.1680   -2.1054 H         1 ATP         0.5254
@<TRIPOS>BOND
     1    1    2 2
     2    1    3 1
     3    1    4 1
     4    1    8 1
     5    4   32 1
     6    5    6 2
     7    5    7 1
     8    5    8 1
     9    5   12 1
    10    7   33 1
    11    9   10 2
    12    9   11 1
    13    9   12 1
    14    9   13 1
    15   13   14 1
    16   14   15 1
    17   14   34 1
    18   14   35 1
    19   15   16 1
    20   15   17 1
    21   15   36 1
    22   16   21 1
    23   17   18 1
    24   17   19 1
    25   17   37 1
    26   18   38 1
    27   19   20 1
    28   19   21 1
    29   19   39 1
    30   20   40 1
    31   21   22 1
    32   21   41 1
    33   22   23 ar
    34   22   31 ar
    35   23   24 ar
    36   23   42 1
    37   24   25 ar
    38   24   46 1
    39   25   26 ar
    40   25   31 ar
    41   26   27 2
    42   26   28 ar
    43   27   43 1
    44   28   29 ar
    45   28   45 1
    46   29   30 ar
    47   29   44 1
    48   30   31 ar
@<TRIPOS>SUBSTRUCTURE
     1 ATP         1 GROUP 0 A     ****
@<TRIPOS>MOLECULE
[[[3,4-dihydroxy-5-(6-imino-7,8-dihydro-1~{H}-purin-8-ylium-9-yl)tetrahydrofuran-2-yl]methoxy-oxido-phosphoryl]oxy-hydroxy-phosphoryl] hydrogen phosphate
   46    48     1     0     0
SMALL
USER_CHARGES

@<TRIPOS>ATOM
      1 PG          2.4076    4.4201   -7.2123 P.3       1 ATP         1.5595
      2 O1G         1.3295    3.9251   -8.1505 O.co2     1 ATP        -0.8438
      3 O2G         3.8230    4.6355   -7.6998 O.co2     1 ATP        -0.8438
      4 O3G         1.8874    5.7972   -6.5057 O.3       1 ATP        -0.7800
      5 PB          1.2557    3.0281   -4.8813 P.3       1 ATP         1.9223
      6 O1B         0.5768    4.1596   -4.1677 O.2       1 ATP        -0.8953
      7 O2B         0.2855    2.1150   -5.7970 O.3       1 ATP        -0.8165
      8 O3B         2.4397    3.4624   -5.8925 O.3       1 ATP        -0.8247
      9 PA          2.8619    0.6169   -4.3269 P.3       1 ATP         1.6157
     10 O1A         4.0991    1.0216   -5.0986 O.co2     1 ATP        -0.8629
     11 O2A         1.8962   -0.4016   -4.8925 O.co2     1 ATP        -0.8629
     12 O3A         2.0200    1.9612   -3.9394 O.3       1 ATP        -0.8191
     13 O5'         3.2903    0.1346   -2.8241 O.3       1 ATP        -0.5644
     14 C5'         2.2816   -0.2918   -1.9206 C.3       1 ATP         0.2062
     15 C4'         2.7248    0.0226   -0.4980 C.3       1 ATP         0.0971
     16 O4'         2.4697    1.4219   -0.2462 O.3       1 ATP        -0.3662
     17 C3'         1.9404   -0.7419    0.5596 C.3       1 ATP         0.0734
     18 O3'         2.7418   -0.8086    1.7389 O.3       1 ATP        -0.5671
     19 C2'         0.7477    0.1630    0.7858 C.3       1 ATP         0.0745
     20 O2'         0.1373   -0.0577    2.0407 O.3       1 ATP        -0.5794
     21 C1'         1.3733    1.5427    0.6747 C.3       1 ATP         0.3824
     22 N9          0.4520    2.5240    0.1767 N.pl3     1 ATP        -0.4324
     23 C8          0.2216    2.8192   -1.0985 C.ar      1 ATP         0.2662
     24 N7         -0.6906    3.7763   -1.2384 N.pl3     1 ATP        -0.4772
     25 C5         -1.0575    4.1037    0.0366 C.ar      1 ATP        -0.1305
     26 C6         -2.0291    5.0943    0.5330 C.ar      1 ATP         0.7186
     27 N6         -2.7093    5.8371   -0.2800 N.2       1 ATP        -0.8115
     28 N1         -2.1051    5.1136    1.9204 N.pl3     1 ATP        -0.8400
     29 C2         -1.3354    4.2774    2.7129 C.ar      1 ATP         0.6671
     30 N3         -0.4707    3.3945    2.2944 N.2       1 ATP        -0.5806
     31 C4         -0.3734    3.3525    0.9220 C.ar      1 ATP         0.2748
     32 HOG3        2.4792    6.2450   -5.8643 H         1 ATP         0.4327
     33 HOB2       -0.2042    2.5357   -6.5355 H         1 ATP         0.4701
     34 H5'1        1.3514    0.2330   -2.1577 H         1 ATP         0.0401
     35 H5'2        2.1280   -1.3678   -2.0460 H         1 ATP         0.0401
     36 H4'         3.8044   -0.1397   -0.4040 H         1 ATP         0.1136
     37 H3'         1.6764   -1.7639    0.2728 H         1 ATP         0.0693
     38 HO3'        3.5554   -1.2733    1.4914 H         1 ATP         0.4124
     39 H2'        -0.0011    0.0027    0.0003 H         1 ATP         0.0854
     40 HO2'       -0.1563   -0.9855    2.0596 H         1 ATP         0.4367
     41 H1'         1.7826    1.9024    1.6451 H         1 ATP         0.1343
     42 H8          0.7125    2.3429   -1.9292 H         1 ATP         0.3302
     43 HN62       -3.3217    6.4517    0.2629 H         1 ATP         0.4160
     44 H2         -1.5188    4.4223    3.7890 H         1 ATP         0.0756
     45 H45        -2.7470    5.7627    2.3665 H         1 ATP         0.4587
     46 H46        -1.0305    4.1680   -2.1054 H         1 ATP         0.5254
@<TRIPOS>BOND
     1    1    2 2
     2    1    3 1
     3    1    4 1
     4    1    8 1
     5    4   32 1
     6    5    6 2
     7    5    7 1
     8    5    8 1
     9    5   12 1
    10    7   33 1
    11    9   10 2
    12    9   11 1
    13    9   12 1
    14    9   13 1
    15   13   14 1
    16   14   15 1
    17   14   34 1
    18   14   35 1
    19   15   16 1
    20   15   17 1
    21   15   36 1
    22   16   21 1
    23   17   18 1
    24   17   19 1
    25   17   37 1
    26   18   38 1
    27   19   20 1
    28   19   21 1
    29   19   39 1
    30   20   40 1
    31   21   22 1
    32   21   41 1
    33   22   23 ar
    34   22   31 ar
    35   23   24 ar
    36   23   42 1
    37   24   25 ar
    38   24   46 1
    39   25   26 ar
    40   25   31 ar
    41   26   27 2
    42   26   28 ar
    43   27   43 1
    44   28   29 ar
    45   28   45 1
    46   29   30 ar
    47   29   44 1
    48   30   31 ar
@<TRIPOS>SUBSTRUCTURE
     1 ATP         1 GROUP 0 A     ****
@<TRIPOS>MOLECULE
[[[3,4-dihydroxy-5-(6-imino-7,8-dihydro-1~{H}-purin-8-ylium-9-yl)tetrahydrofuran-2-yl]methoxy-oxido-phosphoryl]oxy-hydroxy-phosphoryl] hydrogen phosphate
   46    48     1     0     0
SMALL
USER_CHARGES

@<TRIPOS>ATOM
      1 PG          0.2592   -3.3351   -4.7081 P.3       1 ATP         1.5595
      2 O1G        -1.2238   -3.0378   -4.7052 O.co2     1 ATP        -0.8438
      3 O2G         1.0910   -3.1508   -3.4585 O.co2     1 ATP        -0.8438
      4 O3G         0.4818   -4.8559   -5.2594 O.3       1 ATP        -0.7800
      5 PB          1.1583   -0.9348   -6.1668 P.3       1 ATP         1.9223
      6 O1B         1.8591   -0.5556   -7.4378 O.2       1 ATP        -0.8953
      7 O2B        -0.3329   -0.3328   -6.0005 O.3       1 ATP        -0.8165
      8 O3B         0.9584   -2.5223   -5.9371 O.3       1 ATP        -0.8247
      9 PA          2.3334    0.9635   -4.2388 P.3       1 ATP         1.6157
     10 O1A         1.0794    1.7628   -3.9589 O.co2     1 ATP        -0.8629
     11 O2A         3.4182    1.5161   -5.1375 O.co2     1 ATP        -0.8629
     12 O3A         1.9049   -0.5092   -4.7989 O.3       1 ATP        -0.8191
     13 O5'         3.0213    0.5153   -2.8245 O.3       1 ATP        -0.5644
     14 C5'         2.2816   -0.2918   -1.9206 C.3       1 ATP         0.2062
     15 C4'         2.7248    0.0226   -0.4980 C.3       1 ATP         0.0971
     16 O4'         2.4697    1.4219   -0.2462 O.3       1 ATP        -0.3662
     17 C3'         1.9404   -0.7419    0.5596 C.3       1 ATP         0.0734
     18 O3'         2.7418   -0.8086    1.7389 O.3       1 ATP        -0.5671
     19 C2'         0.7477    0.1630    0.7858 C.3       1 ATP         0.0745
     20 O2'         0.1373   -0.0577    2.0407 O.3       1 ATP        -0.5794
     21 C1'         1.3733    1.5427    0.6747 C.3       1 ATP         0.3824
     22 N9          0.4520    2.5240    0.1767 N.pl3     1 ATP        -0.4324
     23 C8         -0.2004    2.4829   -0.9804 C.ar      1 ATP         0.2662
     24 N7         -0.9830    3.5431   -1.1568 N.pl3     1 ATP        -0.4772
     25 C5         -0.8095    4.3012   -0.0331 C.ar      1 ATP        -0.1305
     26 C6         -1.4065    5.5904    0.3585 C.ar      1 ATP         0.7186
     27 N6         -2.2501    6.2030   -0.4084 N.2       1 ATP        -0.8115
     28 N1         -0.9585    6.0272    1.5994 N.pl3     1 ATP        -0.8400
     29 C2         -0.0508    5.3009    2.3532 C.ar      1 ATP         0.6671
     30 N3          0.4890    4.1592    2.0257 N.2       1 ATP        -0.5806
     31 C4          0.0637    3.7006    0.7995 C.ar      1 ATP         0.2748
     32 HOG3        1.3981   -5.2004   -5.3212 H         1 ATP         0.4327
     33 HOB2       -0.4542    0.6406   -5.9985 H         1 ATP         0.4701
     34 H5'1        1.2163   -0.0770   -2.0471 H         1 ATP         0.0401
     35 H5'2        2.4655   -1.3443   -2.1563 H         1 ATP         0.0401
     36 H4'         3.8044   -0.1397   -0.4040 H         1 ATP         0.1136
     37 H3'         1.6764   -1.7639    0.2728 H         1 ATP         0.0693
     38 HO3'        2.2232   -1.2979    2.3953 H         1 ATP         0.4124
     39 H2'        -0.0011    0.0027    0.0003 H         1 ATP         0.0854
     40 HO2'       -0.1563   -0.9855    2.0596 H         1 ATP         0.4367
     41 H1'         1.7826    1.9024    1.6451 H         1 ATP         0.1343
     42 H8         -0.1116    1.6863   -1.6984 H         1 ATP         0.3302
     43 HN62       -2.5420    7.0730    0.0447 H         1 ATP         0.4160
     44 H2          0.1969    5.7893    3.3086 H         1 ATP         0.0756
     45 H45        -1.3097    6.9080    1.9642 H         1 ATP         0.4587
     46 H46        -1.5735    3.7351   -1.9538 H         1 ATP         0.5254
@<TRIPOS>BOND
     1    1    2 2
     2    1    3 1
     3    1    4 1
     4    1    8 1
     5    4   32 1
     6    5    6 2
     7    5    7 1
     8    5    8 1
     9    5   12 1
    10    7   33 1
    11    9   10 2
    12    9   11 1
    13    9   12 1
    14    9   13 1
    15   13   14 1
    16   14   15 1
    17   14   34 1
    18   14   35 1
    19   15   16 1
    20   15   17 1
    21   15   36 1
    22   16   21 1
    23   17   18 1
    24   17   19 1
    25   17   37 1
    26   18   38 1
    27   19   20 1
    28   19   21 1
    29   19   39 1
    30   20   40 1
    31   21   22 1
    32   21   41 1
    33   22   23 ar
    34   22   31 ar
    35   23   24 ar
    36   23   42 1
    37   24   25 ar
    38   24   46 1
    39   25   26 ar
    40   25   31 ar
    41   26   27 2
    42   26   28 ar
    43   27   43 1
    44   28   29 ar
    45   28   45 1
    46   29   30 ar
    47   29   44 1
    48   30   31 ar
@<TRIPOS>SUBSTRUCTURE
     1 ATP         1 GROUP 0 A     ****
@<TRIPOS>MOLECULE
[[[3,4-dihydroxy-5-(6-imino-7,8-dihydro-1~{H}-purin-8-ylium-9-yl)tetrahydrofuran-2-yl]methoxy-oxido-phosphoryl]oxy-hydroxy-phosphoryl] hydrogen phosphate
   46    48     1     0     0
SMALL
USER_CHARGES

@<TRIPOS>ATOM
      1 PG          5.9402   -3.4213    0.0365 P.3       1 ATP         1.5595
      2 O1G         5.7348   -4.4126    1.1601 O.co2     1 ATP        -0.8438
      3 O2G         5.5610   -1.9668    0.2045 O.co2     1 ATP        -0.8438
      4 O3G         7.4988   -3.4984   -0.4443 O.3       1 ATP        -0.7800
      5 PB          5.2647   -3.4496   -2.8342 P.3       1 ATP         1.9223
      6 O1B         6.6262   -3.3654   -3.4586 O.2       1 ATP        -0.8953
      7 O2B         4.2135   -4.4030   -3.6084 O.3       1 ATP        -0.8165
      8 O3B         5.2360   -4.0017   -1.3153 O.3       1 ATP        -0.8247
      9 PA          4.0008   -0.9665   -3.8026 P.3       1 ATP         1.6157
     10 O1A         2.9520   -1.6091   -4.6841 O.co2     1 ATP        -0.8629
     11 O2A         5.2365   -0.3346   -4.4057 O.co2     1 ATP        -0.8629
     12 O3A         4.4765   -2.0485   -2.6761 O.3       1 ATP        -0.8191
     13 O5'         3.2903    0.1346   -2.8241 O.3       1 ATP        -0.5644
     14 C5'         2.2816   -0.2918   -1.9206 C.3       1 ATP         0.2062
     15 C4'         2.7248    0.0226   -0.4980 C.3       1 ATP         0.0971
     16 O4'         2.4697    1.4219   -0.2462 O.3       1 ATP        -0.3662
     17 C3'         1.9404   -0.7419    0.5596 C.3       1 ATP         0.0734
     18 O3'         2.7418   -0.8086    1.7389 O.3       1 ATP        -0.5671
     19 C2'         0.7477    0.1630    0.7858 C.3       1 ATP         0.0745
     20 O2'         0.1373   -0.0577    2.0407 O.3       1 ATP        -0.5794
     21 C1'         1.3733    1.5427    0.6747 C.3       1 ATP         0.3824
     22 N9          0.4520    2.5240    0.1767 N.pl3     1 ATP        -0.4324
     23 C8          0.2216    2.8192   -1.0985 C.ar      1 ATP         0.2662
     24 N7         -0.6906    3.7763   -1.2384 N.pl3     1 ATP        -0.4772
     25 C5         -1.0575    4.1037    0.0366 C.ar      1 ATP        -0.1305
     26 C6         -2.0291    5.0943    0.5330 C.ar      1 ATP         0.7186
     27 N6         -2.7093    5.8371   -0.2800 N.2       1 ATP        -0.8115
     28 N1         -2.1051    5.1136    1.9204 N.pl3     1 ATP        -0.8400
     29 C2         -1.3354    4.2774    2.7129 C.ar      1 ATP         0.6671
     30 N3         -0.4707    3.3945    2.2944 N.2       1 ATP        -0.5806
     31 C4         -0.3734    3.3525    0.9220 C.ar      1 ATP         0.2748
     32 HOG3        7.7922   -2.9105   -1.1726 H         1 ATP         0.4327
     33 HOB2        3.9809   -4.1959   -4.5386 H         1 ATP         0.4701
     34 H5'1        1.3514    0.2330   -2.1577 H         1 ATP         0.0401
     35 H5'2        2.1280   -1.3678   -2.0460 H         1 ATP         0.0401
     36 H4'         3.8044   -0.1397   -0.4040 H         1 ATP         0.1136
     37 H3'         1.6764   -1.7639    0.2728 H         1 ATP         0.0693
     38 HO3'        3.5554   -1.2733    1.4914 H         1 ATP         0.4124
     39 H2'        -0.0011    0.0027    0.0003 H         1 ATP         0.0854
     40 HO2'       -0.1563   -0.9855    2.0596 H         1 ATP         0.4367
     41 H1'         1.7826    1.9024    1.6451 H         1 ATP         0.1343
     42 H8          0.7125    2.3429   -1.9292 H         1 ATP         0.3302
     43 HN62       -3.3217    6.4517    0.2629 H         1 ATP         0.4160
     44 H2         -1.5188    4.4223    3.7890 H         1 ATP         0.0756
     45 H45        -2.7470    5.7627    2.3665 H         1 ATP         0.4587
     46 H46        -1.0305    4.1680   -2.1054 H         1 ATP         0.5254
@<TRIPOS>BOND
     1    1    2 2
     2    1    3 1
     3    1    4 1
     4    1    8 1
     5    4   32 1
     6    5    6 2
     7    5    7 1
     8    5    8 1
     9    5   12 1
    10    7   33 1
    11    9   10 2
    12    9   11 1
    13    9   12 1
    14    9   13 1
    15   13   14 1
    16   14   15 1
    17   14   34 1
    18   14   35 1
    19   15   16 1
    20   15   17 1
    21   15   36 1
    22   16   21 1
    23   17   18 1
    24   17   19 1
    25   17   37 1
    26   18   38 1
    27   19   20 1
    28   19   21 1
    29   19   39 1
    30   20   40 1
    31   21   22 1
    32   21   41 1
    33   22   23 ar
    34   22   31 ar
    35   23   24 ar
    36   23   42 1
    37   24   25 ar
    38   24   46 1
    39   25   26 ar
    40   25   31 ar
    41   26   27 2
    42   26   28 ar
    43   27   43 1
    44   28   29 ar
    45   28   45 1
    46   29   30 ar
    47   29   44 1
    48   30   31 ar
@<TRIPOS>SUBSTRUCTURE
     1 ATP         1 GROUP 0 A     ****
@<TRIPOS>MOLECULE
[[[3,4-dihydroxy-5-(6-imino-7,8-dihydro-1~{H}-purin-8-ylium-9-yl)tetrahydrofuran-2-yl]methoxy-oxido-phosphoryl]oxy-hydroxy-phosphoryl] hydrogen phosphate
   46    48     1     0     0
SMALL
USER_CHARGES

@<TRIPOS>ATOM
      1 PG          0.3352   -0.7399   -6.8868 P.3       1 ATP         1.5595
      2 O1G         0.9571   -0.2403   -8.1719 O.co2     1 ATP        -0.8438
      3 O2G         0.2203    0.1613   -5.6776 O.co2     1 ATP        -0.8438
      4 O3G        -1.1439   -1.3422   -7.2268 O.3       1 ATP        -0.7800
      5 PB          2.5872   -2.4018   -5.9573 P.3       1 ATP         1.9223
      6 O1B         2.9061   -3.8318   -5.6350 O.2       1 ATP        -0.8953
      7 O2B         3.4928   -1.7439   -7.1238 O.3       1 ATP        -0.8165
      8 O3B         1.0718   -2.1273   -6.4481 O.3       1 ATP        -0.8247
      9 PA          4.0008   -0.9665   -3.8026 P.3       1 ATP         1.6157
     10 O1A         5.0349   -0.2794   -4.6679 O.co2     1 ATP        -0.8629
     11 O2A         4.3698   -2.1727   -2.9668 O.co2     1 ATP        -0.8629
     12 O3A         2.7156   -1.3594   -4.7300 O.3       1 ATP        -0.8191
     13 O5'         3.2903    0.1346   -2.8241 O.3       1 ATP        -0.5644
     14 C5'         2.2816   -0.2918   -1.9206 C.3       1 ATP         0.2062
     15 C4'         2.7248    0.0226   -0.4980 C.3       1 ATP         0.0971
     16 O4'         2.4697    1.4219   -0.2462 O.3       1 ATP        -0.3662
     17 C3'         1.9404   -0.7419    0.5596 C.3       1 ATP         0.0734
     18 O3'         2.7418   -0.8086    1.7389 O.3       1 ATP        -0.5671
     19 C2'         0.7477    0.1630    0.7858 C.3       1 ATP         0.0745
     20 O2'         0.1373   -0.0577    2.0407 O.3       1 ATP        -0.5794
     21 C1'         1.3733    1.5427    0.6747 C.3       1 ATP         0.3824
     22 N9          0.4520    2.5240    0.1767 N.pl3     1 ATP        -0.4324
     23 C8          0.2216    2.8192   -1.0985 C.ar      1 ATP         0.2662
     24 N7         -0.6906    3.7763   -1.2384 N.pl3     1 ATP        -0.4772
     25 C5         -1.0575    4.1037    0.0366 C.ar      1 ATP        -0.1305
     26 C6         -2.0291    5.0943    0.5330 C.ar      1 ATP         0.7186
     27 N6         -2.7093    5.8371   -0.2800 N.2       1 ATP        -0.8115
     28 N1         -2.1051    5.1136    1.9204 N.pl3     1 ATP        -0.8400
     29 C2         -1.3354    4.2774    2.7129 C.ar      1 ATP         0.6671
     30 N3         -0.4707    3.3945    2.2944 N.2       1 ATP        -0.5806
     31 C4         -0.3734    3.3525    0.9220 C.ar      1 ATP         0.2748
     32 HOG3       -1.6792   -1.7084   -6.4909 H         1 ATP         0.4327
     33 HOB2        4.4647   -1.6961   -7.0000 H         1 ATP         0.4701
     34 H5'1        1.3514    0.2330   -2.1577 H         1 ATP         0.0401
     35 H5'2        2.1280   -1.3678   -2.0460 H         1 ATP         0.0401
     36 H4'         3.8044   -0.1397   -0.4040 H         1 ATP         0.1136
     37 H3'         1.6764   -1.7639    0.2728 H         1 ATP         0.0693
     38 HO3'        2.2232   -1.2979    2.3953 H         1 ATP         0.4124
     39 H2'        -0.0011    0.0027    0.0003 H         1 ATP         0.0854
     40 HO2'       -0.6141    0.5574    2.1082 H         1 ATP         0.4367
     41 H1'         1.7826    1.9024    1.6451 H         1 ATP         0.1343
     42 H8          0.7125    2.3429   -1.9292 H         1 ATP         0.3302
     43 HN62       -3.3217    6.4517    0.2629 H         1 ATP         0.4160
     44 H2         -1.5188    4.4223    3.7890 H         1 ATP         0.0756
     45 H45        -2.7470    5.7627    2.3665 H         1 ATP         0.4587
     46 H46        -1.0305    4.1680   -2.1054 H         1 ATP         0.5254
@<TRIPOS>BOND
     1    1    2 2
     2    1    3 1
     3    1    4 1
     4    1    8 1
     5    4   32 1
     6    5    6 2
     7    5    7 1
     8    5    8 1
     9    5   12 1
    10    7   33 1
    11    9   10 2
    12    9   11 1
    13    9   12 1
    14    9   13 1
    15   13   14 1
    16   14   15 1
    17   14   34 1
    18   14   35 1
    19   15   16 1
    20   15   17 1
    21   15   36 1
    22   16   21 1
    23   17   18 1
    24   17   19 1
    25   17   37 1
    26   18   38 1
    27   19   20 1
    28   19   21 1
    29   19   39 1
    30   20   40 1
    31   21   22 1
    32   21   41 1
    33   22   23 ar
    34   22   31 ar
    35   23   24 ar
    36   23   42 1
    37   24   25 ar
    38   24   46 1
    39   25   26 ar
    40   25   31 ar
    41   26   27 2
    42   26   28 ar
    43   27   43 1
    44   28   29 ar
    45   28   45 1
    46   29   30 ar
    47   29   44 1
    48   30   31 ar
@<TRIPOS>SUBSTRUCTURE
     1 ATP         1 GROUP 0 A     ****
@<TRIPOS>MOLECULE
[[[3,4-dihydroxy-5-(6-imino-7,8-dihydro-1~{H}-purin-8-ylium-9-yl)tetrahydrofuran-2-yl]methoxy-oxido-phosphoryl]oxy-hydroxy-phosphoryl] hydrogen phosphate
   46    48     1     0     0
SMALL
USER_CHARGES

@<TRIPOS>ATOM
      1 PG          5.7278   -5.4287   -0.6973 P.3       1 ATP         1.5595
      2 O1G         7.2327   -5.5220   -0.8177 O.co2     1 ATP        -0.8438
      3 O2G         4.8363   -6.5293   -1.2275 O.co2     1 ATP        -0.8438
      4 O3G         5.3487   -5.1636    0.8686 O.3       1 ATP        -0.7800
      5 PB          5.2647   -3.4496   -2.8342 P.3       1 ATP         1.9223
      6 O1B         6.6262   -3.3654   -3.4586 O.2       1 ATP        -0.8953
      7 O2B         4.2135   -4.4030   -3.6084 O.3       1 ATP        -0.8165
      8 O3B         5.2360   -4.0017   -1.3153 O.3       1 ATP        -0.8247
      9 PA          4.0008   -0.9665   -3.8026 P.3       1 ATP         1.6157
     10 O1A         2.9520   -1.6091   -4.6841 O.co2     1 ATP        -0.8629
     11 O2A         5.2365   -0.3346   -4.4057 O.co2     1 ATP        -0.8629
     12 O3A         4.4765   -2.0485   -2.6761 O.3       1 ATP        -0.8191
     13 O5'         3.2903    0.1346   -2.8241 O.3       1 ATP        -0.5644
     14 C5'         2.2816   -0.2918   -1.9206 C.3       1 ATP         0.2062
     15 C4'         2.7248    0.0226   -0.4980 C.3       1 ATP         0.0971
     16 O4'         2.4697    1.4219   -0.2462 O.3       1 ATP        -0.3662
     17 C3'         1.9404   -0.7419    0.5596 C.3       1 ATP         0.0734
     18 O3'         2.7418   -0.8086    1.7389 O.3       1 ATP        -0.5671
     19 C2'         0.7477    0.1630    0.7858 C.3       1 ATP         0.0745
     20 O2'         0.1373   -0.0577    2.0407 O.3       1 ATP        -0.5794
     21 C1'         1.3733    1.5427    0.6747 C.3       1 ATP         0.3824
     22 N9          0.4520    2.5240    0.1767 N.pl3     1 ATP        -0.4324
     23 C8          0.2216    2.8192   -1.0985 C.ar      1 ATP         0.2662
     24 N7         -0.6906    3.7763   -1.2384 N.pl3     1 ATP        -0.4772
     25 C5         -1.0575    4.1037    0.0366 C.ar      1 ATP        -0.1305
     26 C6         -2.0291    5.0943    0.5330 C.ar      1 ATP         0.7186
     27 N6         -2.7093    5.8371   -0.2800 N.2       1 ATP        -0.8115
     28 N1         -2.1051    5.1136    1.9204 N.pl3     1 ATP        -0.8400
     29 C2         -1.3354    4.2774    2.7129 C.ar      1 ATP         0.6671
     30 N3         -0.4707    3.3945    2.2944 N.2       1 ATP        -0.5806
     31 C4         -0.3734    3.3525    0.9220 C.ar      1 ATP         0.2748
     32 HOG3        4.4022   -5.0786    1.1118 H         1 ATP         0.4327
     33 HOB2        3.9809   -4.1959   -4.5386 H         1 ATP         0.4701
     34 H5'1        1.3514    0.2330   -2.1577 H         1 ATP         0.0401
     35 H5'2        2.1280   -1.3678   -2.0460 H         1 ATP         0.0401
     36 H4'         3.8044   -0.1397   -0.4040 H         1 ATP         0.1136
     37 H3'         1.6764   -1.7639    0.2728 H         1 ATP         0.0693
     38 HO3'        2.2232   -1.2979    2.3953 H         1 ATP         0.4124
     39 H2'        -0.0011    0.0027    0.0003 H         1 ATP         0.0854
     40 HO2'       -0.6141    0.5574    2.1082 H         1 ATP         0.4367
     41 H1'         1.7826    1.9024    1.6451 H         1 ATP         0.1343
     42 H8          0.7125    2.3429   -1.9292 H         1 ATP         0.3302
     43 HN62       -3.3217    6.4517    0.2629 H         1 ATP         0.4160
     44 H2         -1.5188    4.4223    3.7890 H         1 ATP         0.0756
     45 H45        -2.7470    5.7627    2.3665 H         1 ATP         0.4587
     46 H46        -1.0305    4.1680   -2.1054 H         1 ATP         0.5254
@<TRIPOS>BOND
     1    1    2 2
     2    1    3 1
     3    1    4 1
     4    1    8 1
     5    4   32 1
     6    5    6 2
     7    5    7 1
     8    5    8 1
     9    5   12 1
    10    7   33 1
    11    9   10 2
    12    9   11 1
    13    9   12 1
    14    9   13 1
    15   13   14 1
    16   14   15 1
    17   14   34 1
    18   14   35 1
    19   15   16 1
    20   15   17 1
    21   15   36 1
    22   16   21 1
    23   17   18 1
    24   17   19 1
    25   17   37 1
    26   18   38 1
    27   19   20 1
    28   19   21 1
    29   19   39 1
    30   20   40 1
    31   21   22 1
    32   21   41 1
    33   22   23 ar
    34   22   31 ar
    35   23   24 ar
    36   23   42 1
    37   24   25 ar
    38   24   46 1
    39   25   26 ar
    40   25   31 ar
    41   26   27 2
    42   26   28 ar
    43   27   43 1
    44   28   29 ar
    45   28   45 1
    46   29   30 ar
    47   29   44 1
    48   30   31 ar
@<TRIPOS>SUBSTRUCTURE
     1 ATP         1 GROUP 0 A     ****
@<TRIPOS>MOLECULE
[[[3,4-dihydroxy-5-(6-imino-7,8-dihydro-1~{H}-purin-8-ylium-9-yl)tetrahydrofuran-2-yl]methoxy-oxido-phosphoryl]oxy-hydroxy-phosphoryl] hydrogen phosphate
   46    48     1     0     0
SMALL
USER_CHARGES

@<TRIPOS>ATOM
      1 PG          4.2911   -3.5214   -7.7744 P.3       1 ATP         1.5595
      2 O1G         4.1049   -4.9937   -7.4821 O.co2     1 ATP        -0.8438
      3 O2G         5.6220   -2.9869   -8.2546 O.co2     1 ATP        -0.8438
      4 O3G         3.1338   -3.0514   -8.8260 O.3       1 ATP        -0.7800
      5 PB          2.4178   -2.6895   -5.6540 P.3       1 ATP         1.9223
      6 O1B         1.1944   -2.3557   -6.4553 O.2       1 ATP        -0.8953
      7 O2B         2.4092   -4.1531   -4.9675 O.3       1 ATP        -0.8165
      8 O3B         3.8093   -2.6601   -6.4759 O.3       1 ATP        -0.8247
      9 PA          3.0673   -0.0858   -4.4292 P.3       1 ATP         1.6157
     10 O1A         1.8255    0.6567   -4.8725 O.co2     1 ATP        -0.8629
     11 O2A         4.3921    0.1382   -5.1252 O.co2     1 ATP        -0.8629
     12 O3A         2.7518   -1.6878   -4.4314 O.3       1 ATP        -0.8191
     13 O5'         3.2903    0.1346   -2.8241 O.3       1 ATP        -0.5644
     14 C5'         2.2816   -0.2918   -1.9206 C.3       1 ATP         0.2062
     15 C4'         2.7248    0.0226   -0.4980 C.3       1 ATP         0.0971
     16 O4'         2.4697    1.4219   -0.2462 O.3       1 ATP        -0.3662
     17 C3'         1.9404   -0.7419    0.5596 C.3       1 ATP         0.0734
     18 O3'         2.7418   -0.8086    1.7389 O.3       1 ATP        -0.5671
     19 C2'         0.7477    0.1630    0.7858 C.3       1 ATP         0.0745
     20 O2'         0.1373   -0.0577    2.0407 O.3       1 ATP        -0.5794
     21 C1'         1.3733    1.5427    0.6747 C.3       1 ATP         0.3824
     22 N9          0.4520    2.5240    0.1767 N.pl3     1 ATP        -0.4324
     23 C8          0.2216    2.8192   -1.0985 C.ar      1 ATP         0.2662
     24 N7         -0.6906    3.7763   -1.2384 N.pl3     1 ATP        -0.4772
     25 C5         -1.0575    4.1037    0.0366 C.ar      1 ATP        -0.1305
     26 C6         -2.0291    5.0943    0.5330 C.ar      1 ATP         0.7186
     27 N6         -2.7093    5.8371   -0.2800 N.2       1 ATP        -0.8115
     28 N1         -2.1051    5.1136    1.9204 N.pl3     1 ATP        -0.8400
     29 C2         -1.3354    4.2774    2.7129 C.ar      1 ATP         0.6671
     30 N3         -0.4707    3.3945    2.2944 N.2       1 ATP        -0.5806
     31 C4         -0.3734    3.3525    0.9220 C.ar      1 ATP         0.2748
     32 HOG3        3.1196   -2.1146   -9.1164 H         1 ATP         0.4327
     33 HOB2        2.3385   -4.9458   -5.5410 H         1 ATP         0.4701
     34 H5'1        1.3514    0.2330   -2.1577 H         1 ATP         0.0401
     35 H5'2        2.1280   -1.3678   -2.0460 H         1 ATP         0.0401
     36 H4'         3.8044   -0.1397   -0.4040 H         1 ATP         0.1136
     37 H3'         1.6764   -1.7639    0.2728 H         1 ATP         0.0693
     38 HO3'        3.5554   -1.2733    1.4914 H         1 ATP         0.4124
     39 H2'        -0.0011    0.0027    0.0003 H         1 ATP         0.0854
     40 HO2'       -0.1563   -0.9855    2.0596 H         1 ATP         0.4367
     41 H1'         1.7826    1.9024    1.6451 H         1 ATP         0.1343
     42 H8          0.7125    2.3429   -1.9292 H         1 ATP         0.3302
     43 HN62       -3.3217    6.4517    0.2629 H         1 ATP         0.4160
     44 H2         -1.5188    4.4223    3.7890 H         1 ATP         0.0756
     45 H45        -2.7470    5.7627    2.3665 H         1 ATP         0.4587
     46 H46        -1.0305    4.1680   -2.1054 H         1 ATP         0.5254
@<TRIPOS>BOND
     1    1    2 2
     2    1    3 1
     3    1    4 1
     4    1    8 1
     5    4   32 1
     6    5    6 2
     7    5    7 1
     8    5    8 1
     9    5   12 1
    10    7   33 1
    11    9   10 2
    12    9   11 1
    13    9   12 1
    14    9   13 1
    15   13   14 1
    16   14   15 1
    17   14   34 1
    18   14   35 1
    19   15   16 1
    20   15   17 1
    21   15   36 1
    22   16   21 1
    23   17   18 1
    24   17   19 1
    25   17   37 1
    26   18   38 1
    27   19   20 1
    28   19   21 1
    29   19   39 1
    30   20   40 1
    31   21   22 1
    32   21   41 1
    33   22   23 ar
    34   22   31 ar
    35   23   24 ar
    36   23   42 1
    37   24   25 ar
    38   24   46 1
    39   25   26 ar
    40   25   31 ar
    41   26   27 2
    42   26   28 ar
    43   27   43 1
    44   28   29 ar
    45   28   45 1
    46   29   30 ar
    47   29   44 1
    48   30   31 ar
@<TRIPOS>SUBSTRUCTURE
     1 ATP         1 GROUP 0 A     ****
@<TRIPOS>MOLECULE
[[[3,4-dihydroxy-5-(6-imino-7,8-dihydro-1~{H}-purin-8-ylium-9-yl)tetrahydrofuran-2-yl]methoxy-oxido-phosphoryl]oxy-hydroxy-phosphoryl] hydrogen phosphate
   46    48     1     0     0
SMALL
USER_CHARGES

@<TRIPOS>ATOM
      1 PG          1.6518   -0.3365   -8.8078 P.3       1 ATP         1.5595
      2 O1G         0.1957   -0.3462   -9.2169 O.co2     1 ATP        -0.8438
      3 O2G         2.6053   -1.4004   -9.3039 O.co2     1 ATP        -0.8438
      4 O3G         2.2798    1.1286   -9.1620 O.3       1 ATP        -0.7800
      5 PB          1.3127   -1.3309   -6.0520 P.3       1 ATP         1.9223
      6 O1B        -0.1377   -1.7137   -6.0528 O.2       1 ATP        -0.8953
      7 O2B         2.3448   -2.5552   -6.2746 O.3       1 ATP        -0.8165
      8 O3B         1.7428   -0.2572   -7.1812 O.3       1 ATP        -0.8247
      9 PA          3.3342   -0.0516   -4.3262 P.3       1 ATP         1.6157
     10 O1A         3.6725    1.1050   -5.2416 O.co2     1 ATP        -0.8629
     11 O2A         4.2676   -1.2358   -4.1991 O.co2     1 ATP        -0.8629
     12 O3A         1.8482   -0.6092   -4.7096 O.3       1 ATP        -0.8191
     13 O5'         3.0213    0.5153   -2.8245 O.3       1 ATP        -0.5644
     14 C5'         2.2816   -0.2918   -1.9206 C.3       1 ATP         0.2062
     15 C4'         2.7248    0.0226   -0.4980 C.3       1 ATP         0.0971
     16 O4'         2.4697    1.4219   -0.2462 O.3       1 ATP        -0.3662
     17 C3'         1.9404   -0.7419    0.5596 C.3       1 ATP         0.0734
     18 O3'         2.7418   -0.8086    1.7389 O.3       1 ATP        -0.5671
     19 C2'         0.7477    0.1630    0.7858 C.3       1 ATP         0.0745
     20 O2'         0.1373   -0.0577    2.0407 O.3       1 ATP        -0.5794
     21 C1'         1.3733    1.5427    0.6747 C.3       1 ATP         0.3824
     22 N9          0.4520    2.5240    0.1767 N.pl3     1 ATP        -0.4324
     23 C8          0.2216    2.8192   -1.0985 C.ar      1 ATP         0.2662
     24 N7         -0.6906    3.7763   -1.2384 N.pl3     1 ATP        -0.4772
     25 C5         -1.0575    4.1037    0.0366 C.ar      1 ATP        -0.1305
     26 C6         -2.0291    5.0943    0.5330 C.ar      1 ATP         0.7186
     27 N6         -2.7093    5.8371   -0.2800 N.2       1 ATP        -0.8115
     28 N1         -2.1051    5.1136    1.9204 N.pl3     1 ATP        -0.8400
     29 C2         -1.3354    4.2774    2.7129 C.ar      1 ATP         0.6671
     30 N3         -0.4707    3.3945    2.2944 N.2       1 ATP        -0.5806
     31 C4         -0.3734    3.3525    0.9220 C.ar      1 ATP         0.2748
     32 HOG3        3.2241    1.2941   -8.9546 H         1 ATP         0.4327
     33 HOB2        2.2891   -3.0781   -7.1027 H         1 ATP         0.4701
     34 H5'1        1.2163   -0.0770   -2.0471 H         1 ATP         0.0401
     35 H5'2        2.4655   -1.3443   -2.1563 H         1 ATP         0.0401
     36 H4'         3.8044   -0.1397   -0.4040 H         1 ATP         0.1136
     37 H3'         1.6764   -1.7639    0.2728 H         1 ATP         0.0693
     38 HO3'        2.2232   -1.2979    2.3953 H         1 ATP         0.4124
     39 H2'        -0.0011    0.0027    0.0003 H         1 ATP         0.0854
     40 HO2'       -0.1563   -0.9855    2.0596 H         1 ATP         0.4367
     41 H1'         1.7826    1.9024    1.6451 H         1 ATP         0.1343
     42 H8          0.7125    2.3429   -1.9292 H         1 ATP         0.3302
     43 HN62       -3.3217    6.4517    0.2629 H         1 ATP         0.4160
     44 H2         -1.5188    4.4223    3.7890 H         1 ATP         0.0756
     45 H45        -2.7470    5.7627    2.3665 H         1 ATP         0.4587
     46 H46        -1.0305    4.1680   -2.1054 H         1 ATP         0.5254
@<TRIPOS>BOND
     1    1    2 2
     2    1    3 1
     3    1    4 1
     4    1    8 1
     5    4   32 1
     6    5    6 2
     7    5    7 1
     8    5    8 1
     9    5   12 1
    10    7   33 1
    11    9   10 2
    12    9   11 1
    13    9   12 1
    14    9   13 1
    15   13   14 1
    16   14   15 1
    17   14   34 1
    18   14   35 1
    19   15   16 1
    20   15   17 1
    21   15   36 1
    22   16   21 1
    23   17   18 1
    24   17   19 1
    25   17   37 1
    26   18   38 1
    27   19   20 1
    28   19   21 1
    29   19   39 1
    30   20   40 1
    31   21   22 1
    32   21   41 1
    33   22   23 ar
    34   22   31 ar
    35   23   24 ar
    36   23   42 1
    37   24   25 ar
    38   24   46 1
    39   25   26 ar
    40   25   31 ar
    41   26   27 2
    42   26   28 ar
    43   27   43 1
    44   28   29 ar
    45   28   45 1
    46   29   30 ar
    47   29   44 1
    48   30   31 ar
@<TRIPOS>SUBSTRUCTURE
     1 ATP         1 GROUP 0 A     ****
@<TRIPOS>MOLECULE
[[[3,4-dihydroxy-5-(6-imino-7,8-dihydro-1~{H}-purin-8-ylium-9-yl)tetrahydrofuran-2-yl]methoxy-oxido-phosphoryl]oxy-hydroxy-phosphoryl] hydrogen phosphate
   46    48     1     0     0
SMALL
USER_CHARGES

@<TRIPOS>ATOM
      1 PG         -2.5384   -2.6002   -5.4999 P.3       1 ATP         1.5595
      2 O1G        -2.6313   -4.1030   -5.6441 O.co2     1 ATP        -0.8438
      3 O2G        -3.0495   -1.6822   -6.5877 O.co2     1 ATP        -0.8438
      4 O3G        -3.2377   -2.1708   -4.0882 O.3       1 ATP        -0.7800
      5 PB         -0.0162   -2.7318   -3.9770 P.3       1 ATP         1.9223
      6 O1B        -0.5046   -2.5047   -2.5770 O.2       1 ATP        -0.8953
      7 O2B         0.2414   -4.2786   -4.3705 O.3       1 ATP        -0.8165
      8 O3B        -0.9982   -2.1980   -5.1447 O.3       1 ATP        -0.8247
      9 PA          2.8603   -2.1314   -3.7189 P.3       1 ATP         1.6157
     10 O1A         3.7693   -1.1113   -4.3692 O.co2     1 ATP        -0.8629
     11 O2A         3.2353   -3.5972   -3.6945 O.co2     1 ATP        -0.8629
     12 O3A         1.3676   -1.9951   -4.3666 O.3       1 ATP        -0.8191
     13 O5'         2.5245   -1.6648   -2.1878 O.3       1 ATP        -0.5644
     14 C5'         2.2816   -0.2918   -1.9206 C.3       1 ATP         0.2062
     15 C4'         2.7248    0.0226   -0.4980 C.3       1 ATP         0.0971
     16 O4'         2.4697    1.4219   -0.2462 O.3       1 ATP        -0.3662
     17 C3'         1.9404   -0.7419    0.5596 C.3       1 ATP         0.0734
     18 O3'         2.7418   -0.8086    1.7389 O.3       1 ATP        -0.5671
     19 C2'         0.7477    0.1630    0.7858 C.3       1 ATP         0.0745
     20 O2'         0.1373   -0.0577    2.0407 O.3       1 ATP        -0.5794
     21 C1'         1.3733    1.5427    0.6747 C.3       1 ATP         0.3824
     22 N9          0.4520    2.5240    0.1767 N.pl3     1 ATP        -0.4324
     23 C8          0.2216    2.8192   -1.0985 C.ar      1 ATP         0.2662
     24 N7         -0.6906    3.7763   -1.2384 N.pl3     1 ATP        -0.4772
     25 C5         -1.0575    4.1037    0.0366 C.ar      1 ATP        -0.1305
     26 C6         -2.0291    5.0943    0.5330 C.ar      1 ATP         0.7186
     27 N6         -2.7093    5.8371   -0.2800 N.2       1 ATP        -0.8115
     28 N1         -2.1051    5.1136    1.9204 N.pl3     1 ATP        -0.8400
     29 C2         -1.3354    4.2774    2.7129 C.ar      1 ATP         0.6671
     30 N3         -0.4707    3.3945    2.2944 N.2       1 ATP        -0.5806
     31 C4         -0.3734    3.3525    0.9220 C.ar      1 ATP         0.2748
     32 HOG3       -3.2580   -1.2200   -3.8476 H         1 ATP         0.4327
     33 HOB2        0.8976   -4.7960   -3.8567 H         1 ATP         0.4701
     34 H5'1        2.8432    0.3119   -2.6398 H         1 ATP         0.0401
     35 H5'2        1.2128   -0.0927   -2.0428 H         1 ATP         0.0401
     36 H4'         3.8044   -0.1397   -0.4040 H         1 ATP         0.1136
     37 H3'         1.6764   -1.7639    0.2728 H         1 ATP         0.0693
     38 HO3'        2.2232   -1.2979    2.3953 H         1 ATP         0.4124
     39 H2'        -0.0011    0.0027    0.0003 H         1 ATP         0.0854
     40 HO2'       -0.1563   -0.9855    2.0596 H         1 ATP         0.4367
     41 H1'         1.7826    1.9024    1.6451 H         1 ATP         0.1343
     42 H8          0.7125    2.3429   -1.9292 H         1 ATP         0.3302
     43 HN62       -3.3217    6.4517    0.2629 H         1 ATP         0.4160
     44 H2         -1.5188    4.4223    3.7890 H         1 ATP         0.0756
     45 H45        -2.7470    5.7627    2.3665 H         1 ATP         0.4587
     46 H46        -1.0305    4.1680   -2.1054 H         1 ATP         0.5254
@<TRIPOS>BOND
     1    1    2 2
     2    1    3 1
     3    1    4 1
     4    1    8 1
     5    4   32 1
     6    5    6 2
     7    5    7 1
     8    5    8 1
     9    5   12 1
    10    7   33 1
    11    9   10 2
    12    9   11 1
    13    9   12 1
    14    9   13 1
    15   13   14 1
    16   14   15 1
    17   14   34 1
    18   14   35 1
    19   15   16 1
    20   15   17 1
    21   15   36 1
    22   16   21 1
    23   17   18 1
    24   17   19 1
    25   17   37 1
    26   18   38 1
    27   19   20 1
    28   19   21 1
    29   19   39 1
    30   20   40 1
    31   21   22 1
    32   21   41 1
    33   22   23 ar
    34   22   31 ar
    35   23   24 ar
    36   23   42 1
    37   24   25 ar
    38   24   46 1
    39   25   26 ar
    40   25   31 ar
    41   26   27 2
    42   26   28 ar
    43   27   43 1
    44   28   29 ar
    45   28   45 1
    46   29   30 ar
    47   29   44 1
    48   30   31 ar
@<TRIPOS>SUBSTRUCTURE
     1 ATP         1 GROUP 0 A     ****
@<TRIPOS>MOLECULE
[[[3,4-dihydroxy-5-(6-imino-7,8-dihydro-1~{H}-purin-8-ylium-9-yl)tetrahydrofuran-2-yl]methoxy-oxido-phosphoryl]oxy-hydroxy-phosphoryl] hydrogen phosphate
   46    48     1     0     0
SMALL
USER_CHARGES

@<TRIPOS>ATOM
      1 PG         -6.0278   -4.6723    1.4764 P.3       1 ATP         1.5595
      2 O1G        -6.7069   -5.8847    0.8795 O.co2     1 ATP        -0.8438
      3 O2G        -4.8470   -4.0252    0.7875 O.co2     1 ATP        -0.8438
      4 O3G        -7.1591   -3.5273    1.7509 O.3       1 ATP        -0.7800
      5 PB         -4.5543   -6.0440    3.6316 P.3       1 ATP         1.9223
      6 O1B        -4.4610   -6.0661    5.1287 O.2       1 ATP        -0.8953
      7 O2B        -4.9612   -7.4520    2.9495 O.3       1 ATP        -0.8165
      8 O3B        -5.6273   -4.9993    3.0233 O.3       1 ATP        -0.8247
      9 PA         -1.7207   -6.2768    2.8457 P.3       1 ATP         1.6157
     10 O1A        -1.8041   -7.6468    2.2084 O.co2     1 ATP        -0.8629
     11 O2A        -1.1159   -6.0993    4.2214 O.co2     1 ATP        -0.8629
     12 O3A        -3.2097   -5.6068    2.8503 O.3       1 ATP        -0.8191
     13 O5'        -0.9724   -5.2440    1.8220 O.3       1 ATP        -0.5644
     14 C5'        -0.7840   -3.8935    2.2172 C.3       1 ATP         0.2062
     15 C4'        -0.0724   -3.1466    1.1027 C.3       1 ATP         0.0971
     16 O4'        -0.8674   -3.1929   -0.0945 O.3       1 ATP        -0.3662
     17 C3'         0.1338   -1.6715    1.4027 C.3       1 ATP         0.0734
     18 O3'         1.2893   -1.4445    2.1808 O.3       1 ATP        -0.5671
     19 C2'         0.2158   -1.0724    0.0128 C.3       1 ATP         0.0745
     20 O2'         1.5141   -1.2448   -0.5513 O.3       1 ATP        -0.5794
     21 C1'        -0.7897   -1.9176   -0.7583 C.3       1 ATP         0.3824
     22 N9         -2.1040   -1.3333   -0.7704 N.pl3     1 ATP        -0.4324
     23 C8         -3.0590   -1.5123    0.1363 C.ar      1 ATP         0.2662
     24 N7         -4.1655   -0.8354   -0.1554 N.pl3     1 ATP        -0.4772
     25 C5         -3.8852   -0.1874   -1.3253 C.ar      1 ATP        -0.1305
     26 C6         -4.7113    0.7160   -2.1458 C.ar      1 ATP         0.7186
     27 N6         -5.9213    1.0209   -1.8021 N.2       1 ATP        -0.8115
     28 N1         -4.0411    1.1673   -3.2764 N.pl3     1 ATP        -0.8400
     29 C2         -2.7403    0.7865   -3.5638 C.ar      1 ATP         0.6671
     30 N3         -1.9921   -0.0108   -2.8519 N.2       1 ATP        -0.5806
     31 C4         -2.6302   -0.4747   -1.7239 C.ar      1 ATP         0.2748
     32 HOG3       -6.8739   -2.6732    2.1399 H         1 ATP         0.4327
     33 HOB2       -4.3831   -8.2320    3.0900 H         1 ATP         0.4701
     34 H5'1       -1.7618   -3.4448    2.4164 H         1 ATP         0.0401
     35 H5'2       -0.1874   -3.8744    3.1341 H         1 ATP         0.0401
     36 H4'         0.8874   -3.6466    0.8805 H         1 ATP         0.1136
     37 H3'        -0.7376   -1.2333    1.9867 H         1 ATP         0.0693
     38 HO3'        1.3408   -0.4870    2.3219 H         1 ATP         0.4124
     39 H2'        -0.0384   -0.0310    0.0096 H         1 ATP         0.0854
     40 HO2'        2.1463   -0.7958    0.0370 H         1 ATP         0.4367
     41 H1'        -0.4769   -2.1002   -1.8093 H         1 ATP         0.1343
     42 H8         -2.9569   -2.1323    1.0098 H         1 ATP         0.3302
     43 HN62       -6.3169    1.6552   -2.5012 H         1 ATP         0.4160
     44 H2         -2.3612    1.2343   -4.4957 H         1 ATP         0.0756
     45 H45        -4.5223    1.7976   -3.9117 H         1 ATP         0.4587
     46 H46        -5.0218   -0.8132    0.3804 H         1 ATP         0.5254
@<TRIPOS>BOND
     1    1    2 2
     2    1    3 1
     3    1    4 1
     4    1    8 1
     5    4   32 1
     6    5    6 2
     7    5    7 1
     8    5    8 1
     9    5   12 1
    10    7   33 1
    11    9   10 2
    12    9   11 1
    13    9   12 1
    14    9   13 1
    15   13   14 1
    16   14   15 1
    17   14   34 1
    18   14   35 1
    19   15   16 1
    20   15   17 1
    21   15   36 1
    22   16   21 1
    23   17   18 1
    24   17   19 1
    25   17   37 1
    26   18   38 1
    27   19   20 1
    28   19   21 1
    29   19   39 1
    30   20   40 1
    31   21   22 1
    32   21   41 1
    33   22   23 ar
    34   22   31 ar
    35   23   24 ar
    36   23   42 1
    37   24   25 ar
    38   24   46 1
    39   25   26 ar
    40   25   31 ar
    41   26   27 2
    42   26   28 ar
    43   27   43 1
    44   28   29 ar
    45   28   45 1
    46   29   30 ar
    47   29   44 1
    48   30   31 ar
@<TRIPOS>SUBSTRUCTURE
     1 ATP         1 GROUP 0 A     ****
@<TRIPOS>MOLECULE
[[[3,4-dihydroxy-5-(6-imino-7,8-dihydro-1~{H}-purin-8-ylium-9-yl)tetrahydrofuran-2-yl]methoxy-oxido-phosphoryl]oxy-hydroxy-phosphoryl] hydrogen phosphate
   46    48     1     0     0
SMALL
USER_CHARGES

@<TRIPOS>ATOM
      1 PG          4.6920   -4.6580   -6.2684 P.3       1 ATP         1.5595
      2 O1G         5.1743   -5.6637   -5.2469 O.co2     1 ATP        -0.8438
      3 O2G         5.5133   -4.3461   -7.4995 O.co2     1 ATP        -0.8438
      4 O3G         3.1878   -5.0813   -6.7422 O.3       1 ATP        -0.7800
      5 PB          3.6349   -1.9126   -6.0608 P.3       1 ATP         1.9223
      6 O1B         4.3711   -1.2279   -7.1741 O.2       1 ATP        -0.8953
      7 O2B         2.1271   -2.3735   -6.4179 O.3       1 ATP        -0.8165
      8 O3B         4.3270   -3.2636   -5.5052 O.3       1 ATP        -0.8247
      9 PA          2.7406    0.3767   -4.4296 P.3       1 ATP         1.6157
     10 O1A         1.2546    0.2225   -4.6703 O.co2     1 ATP        -0.8629
     11 O2A         3.5320    1.4518   -5.1421 O.co2     1 ATP        -0.8629
     12 O3A         3.4692   -1.0595   -4.6990 O.3       1 ATP        -0.8191
     13 O5'         3.0213    0.5153   -2.8245 O.3       1 ATP        -0.5644
     14 C5'         2.2816   -0.2918   -1.9206 C.3       1 ATP         0.2062
     15 C4'         2.7248    0.0226   -0.4980 C.3       1 ATP         0.0971
     16 O4'         2.4697    1.4219   -0.2462 O.3       1 ATP        -0.3662
     17 C3'         1.9404   -0.7419    0.5596 C.3       1 ATP         0.0734
     18 O3'         2.7418   -0.8086    1.7389 O.3       1 ATP        -0.5671
     19 C2'         0.7477    0.1630    0.7858 C.3       1 ATP         0.0745
     20 O2'         0.1373   -0.0577    2.0407 O.3       1 ATP        -0.5794
     21 C1'         1.3733    1.5427    0.6747 C.3       1 ATP         0.3824
     22 N9          0.4520    2.5240    0.1767 N.pl3     1 ATP        -0.4324
     23 C8         -0.2004    2.4829   -0.9804 C.ar      1 ATP         0.2662
     24 N7         -0.9830    3.5431   -1.1568 N.pl3     1 ATP        -0.4772
     25 C5         -0.8095    4.3012   -0.0331 C.ar      1 ATP        -0.1305
     26 C6         -1.4065    5.5904    0.3585 C.ar      1 ATP         0.7186
     27 N6         -2.2501    6.2030   -0.4084 N.2       1 ATP        -0.8115
     28 N1         -0.9585    6.0272    1.5994 N.pl3     1 ATP        -0.8400
     29 C2         -0.0508    5.3009    2.3532 C.ar      1 ATP         0.6671
     30 N3          0.4890    4.1592    2.0257 N.2       1 ATP        -0.5806
     31 C4          0.0637    3.7006    0.7995 C.ar      1 ATP         0.2748
     32 HOG3        2.7337   -4.5225   -7.4084 H         1 ATP         0.4327
     33 HOB2        1.4732   -1.6925   -6.6843 H         1 ATP         0.4701
     34 H5'1        1.2163   -0.0770   -2.0471 H         1 ATP         0.0401
     35 H5'2        2.4655   -1.3443   -2.1563 H         1 ATP         0.0401
     36 H4'         3.8044   -0.1397   -0.4040 H         1 ATP         0.1136
     37 H3'         1.6764   -1.7639    0.2728 H         1 ATP         0.0693
     38 HO3'        3.5554   -1.2733    1.4914 H         1 ATP         0.4124
     39 H2'        -0.0011    0.0027    0.0003 H         1 ATP         0.0854
     40 HO2'       -0.1563   -0.9855    2.0596 H         1 ATP         0.4367
     41 H1'         1.7826    1.9024    1.6451 H         1 ATP         0.1343
     42 H8         -0.1116    1.6863   -1.6984 H         1 ATP         0.3302
     43 HN62       -2.5420    7.0730    0.0447 H         1 ATP         0.4160
     44 H2          0.1969    5.7893    3.3086 H         1 ATP         0.0756
     45 H45        -1.3097    6.9080    1.9642 H         1 ATP         0.4587
     46 H46        -1.5735    3.7351   -1.9538 H         1 ATP         0.5254
@<TRIPOS>BOND
     1    1    2 2
     2    1    3 1
     3    1    4 1
     4    1    8 1
     5    4   32 1
     6    5    6 2
     7    5    7 1
     8    5    8 1
     9    5   12 1
    10    7   33 1
    11    9   10 2
    12    9   11 1
    13    9   12 1
    14    9   13 1
    15   13   14 1
    16   14   15 1
    17   14   34 1
    18   14   35 1
    19   15   16 1
    20   15   17 1
    21   15   36 1
    22   16   21 1
    23   17   18 1
    24   17   19 1
    25   17   37 1
    26   18   38 1
    27   19   20 1
    28   19   21 1
    29   19   39 1
    30   20   40 1
    31   21   22 1
    32   21   41 1
    33   22   23 ar
    34   22   31 ar
    35   23   24 ar
    36   23   42 1
    37   24   25 ar
    38   24   46 1
    39   25   26 ar
    40   25   31 ar
    41   26   27 2
    42   26   28 ar
    43   27   43 1
    44   28   29 ar
    45   28   45 1
    46   29   30 ar
    47   29   44 1
    48   30   31 ar
@<TRIPOS>SUBSTRUCTURE
     1 ATP         1 GROUP 0 A     ****
@<TRIPOS>MOLECULE
[[[3,4-dihydroxy-5-(6-imino-7,8-dihydro-1~{H}-purin-8-ylium-9-yl)tetrahydrofuran-2-yl]methoxy-oxido-phosphoryl]oxy-hydroxy-phosphoryl] hydrogen phosphate
   46    48     1     0     0
SMALL
USER_CHARGES

@<TRIPOS>ATOM
      1 PG         -1.4268   -0.8346   -5.0715 P.3       1 ATP         1.5595
      2 O1G        -1.5285    0.4738   -4.3197 O.co2     1 ATP        -0.8438
      3 O2G        -1.6006   -2.1565   -4.3575 O.co2     1 ATP        -0.8438
      4 O3G        -2.4602   -0.7881   -6.3349 O.3       1 ATP        -0.7800
      5 PB          1.5055   -0.9074   -5.3782 P.3       1 ATP         1.9223
      6 O1B         1.8595   -2.1051   -4.5472 O.2       1 ATP        -0.8953
      7 O2B         2.3781   -0.7271   -6.7271 O.3       1 ATP        -0.8165
      8 O3B        -0.0231   -0.8591   -5.9016 O.3       1 ATP        -0.8247
      9 PA          2.9230    1.2546   -3.9578 P.3       1 ATP         1.6157
     10 O1A         2.4619    2.5263   -3.2796 O.co2     1 ATP        -0.8629
     11 O2A         4.0434    1.2827   -4.9744 O.co2     1 ATP        -0.8629
     12 O3A         1.6316    0.5231   -4.6386 O.3       1 ATP        -0.8191
     13 O5'         3.2903    0.1346   -2.8241 O.3       1 ATP        -0.5644
     14 C5'         2.2816   -0.2918   -1.9206 C.3       1 ATP         0.2062
     15 C4'         2.7248    0.0226   -0.4980 C.3       1 ATP         0.0971
     16 O4'         2.4697    1.4219   -0.2462 O.3       1 ATP        -0.3662
     17 C3'         1.9404   -0.7419    0.5596 C.3       1 ATP         0.0734
     18 O3'         2.7418   -0.8086    1.7389 O.3       1 ATP        -0.5671
     19 C2'         0.7477    0.1630    0.7858 C.3       1 ATP         0.0745
     20 O2'         0.1373   -0.0577    2.0407 O.3       1 ATP        -0.5794
     21 C1'         1.3733    1.5427    0.6747 C.3       1 ATP         0.3824
     22 N9          0.4520    2.5240    0.1767 N.pl3     1 ATP        -0.4324
     23 C8         -0.2004    2.4829   -0.9804 C.ar      1 ATP         0.2662
     24 N7         -0.9830    3.5431   -1.1568 N.pl3     1 ATP        -0.4772
     25 C5         -0.8095    4.3012   -0.0331 C.ar      1 ATP        -0.1305
     26 C6         -1.4065    5.5904    0.3585 C.ar      1 ATP         0.7186
     27 N6         -2.2501    6.2030   -0.4084 N.2       1 ATP        -0.8115
     28 N1         -0.9585    6.0272    1.5994 N.pl3     1 ATP        -0.8400
     29 C2         -0.0508    5.3009    2.3532 C.ar      1 ATP         0.6671
     30 N3          0.4890    4.1592    2.0257 N.2       1 ATP        -0.5806
     31 C4          0.0637    3.7006    0.7995 C.ar      1 ATP         0.2748
     32 HOG3       -2.5117   -1.5701   -6.9248 H         1 ATP         0.4327
     33 HOB2        3.3507   -0.6230   -6.6528 H         1 ATP         0.4701
     34 H5'1        1.3514    0.2330   -2.1577 H         1 ATP         0.0401
     35 H5'2        2.1280   -1.3678   -2.0460 H         1 ATP         0.0401
     36 H4'         3.8044   -0.1397   -0.4040 H         1 ATP         0.1136
     37 H3'         1.6764   -1.7639    0.2728 H         1 ATP         0.0693
     38 HO3'        2.2232   -1.2979    2.3953 H         1 ATP         0.4124
     39 H2'        -0.0011    0.0027    0.0003 H         1 ATP         0.0854
     40 HO2'       -0.6141    0.5574    2.1082 H         1 ATP         0.4367
     41 H1'         1.7826    1.9024    1.6451 H         1 ATP         0.1343
     42 H8         -0.1116    1.6863   -1.6984 H         1 ATP         0.3302
     43 HN62       -2.5420    7.0730    0.0447 H         1 ATP         0.4160
     44 H2          0.1969    5.7893    3.3086 H         1 ATP         0.0756
     45 H45        -1.3097    6.9080    1.9642 H         1 ATP         0.4587
     46 H46        -1.5735    3.7351   -1.9538 H         1 ATP         0.5254
@<TRIPOS>BOND
     1    1    2 2
     2    1    3 1
     3    1    4 1
     4    1    8 1
     5    4   32 1
     6    5    6 2
     7    5    7 1
     8    5    8 1
     9    5   12 1
    10    7   33 1
    11    9   10 2
    12    9   11 1
    13    9   12 1
    14    9   13 1
    15   13   14 1
    16   14   15 1
    17   14   34 1
    18   14   35 1
    19   15   16 1
    20   15   17 1
    21   15   36 1
    22   16   21 1
    23   17   18 1
    24   17   19 1
    25   17   37 1
    26   18   38 1
    27   19   20 1
    28   19   21 1
    29   19   39 1
    30   20   40 1
    31   21   22 1
    32   21   41 1
    33   22   23 ar
    34   22   31 ar
    35   23   24 ar
    36   23   42 1
    37   24   25 ar
    38   24   46 1
    39   25   26 ar
    40   25   31 ar
    41   26   27 2
    42   26   28 ar
    43   27   43 1
    44   28   29 ar
    45   28   45 1
    46   29   30 ar
    47   29   44 1
    48   30   31 ar
@<TRIPOS>SUBSTRUCTURE
     1 ATP         1 GROUP 0 A     ****
@<TRIPOS>MOLECULE
[[[3,4-dihydroxy-5-(6-imino-7,8-dihydro-1~{H}-purin-8-ylium-9-yl)tetrahydrofuran-2-yl]methoxy-oxido-phosphoryl]oxy-hydroxy-phosphoryl] hydrogen phosphate
   46    48     1     0     0
SMALL
USER_CHARGES

@<TRIPOS>ATOM
      1 PG          1.3239   -4.3896   -7.6224 P.3       1 ATP         1.5595
      2 O1G        -0.1586   -4.2701   -7.8972 O.co2     1 ATP        -0.8438
      3 O2G         1.9701   -5.7420   -7.4208 O.co2     1 ATP        -0.8438
      4 O3G         2.1344   -3.5979   -8.7983 O.3       1 ATP        -0.7800
      5 PB          1.4238   -1.8510   -6.1246 P.3       1 ATP         1.9223
      6 O1B         2.0230   -0.9295   -7.1454 O.2       1 ATP        -0.8953
      7 O2B        -0.1849   -1.7685   -5.9874 O.3       1 ATP        -0.8165
      8 O3B         1.7075   -3.4240   -6.3652 O.3       1 ATP        -0.8247
      9 PA          1.5543   -2.4556   -3.2404 P.3       1 ATP         1.6157
     10 O1A         2.0068   -3.8946   -3.3602 O.co2     1 ATP        -0.8629
     11 O2A         0.1179   -2.1223   -2.9006 O.co2     1 ATP        -0.8629
     12 O3A         1.9540   -1.6623   -4.6104 O.3       1 ATP        -0.8191
     13 O5'         2.5245   -1.6648   -2.1878 O.3       1 ATP        -0.5644
     14 C5'         2.2816   -0.2918   -1.9206 C.3       1 ATP         0.2062
     15 C4'         2.7248    0.0226   -0.4980 C.3       1 ATP         0.0971
     16 O4'         2.4697    1.4219   -0.2462 O.3       1 ATP        -0.3662
     17 C3'         1.9404   -0.7419    0.5596 C.3       1 ATP         0.0734
     18 O3'         2.7418   -0.8086    1.7389 O.3       1 ATP        -0.5671
     19 C2'         0.7477    0.1630    0.7858 C.3       1 ATP         0.0745
     20 O2'         0.1373   -0.0577    2.0407 O.3       1 ATP        -0.5794
     21 C1'         1.3733    1.5427    0.6747 C.3       1 ATP         0.3824
     22 N9          0.4520    2.5240    0.1767 N.pl3     1 ATP        -0.4324
     23 C8          0.2216    2.8192   -1.0985 C.ar      1 ATP         0.2662
     24 N7         -0.6906    3.7763   -1.2384 N.pl3     1 ATP        -0.4772
     25 C5         -1.0575    4.1037    0.0366 C.ar      1 ATP        -0.1305
     26 C6         -2.0291    5.0943    0.5330 C.ar      1 ATP         0.7186
     27 N6         -2.7093    5.8371   -0.2800 N.2       1 ATP        -0.8115
     28 N1         -2.1051    5.1136    1.9204 N.pl3     1 ATP        -0.8400
     29 C2         -1.3354    4.2774    2.7129 C.ar      1 ATP         0.6671
     30 N3         -0.4707    3.3945    2.2944 N.2       1 ATP        -0.5806
     31 C4         -0.3734    3.3525    0.9220 C.ar      1 ATP         0.2748
     32 HOG3        3.1145   -3.5835   -8.7611 H         1 ATP         0.4327
     33 HOB2       -0.5964   -0.9149   -5.7341 H         1 ATP         0.4701
     34 H5'1        2.8432    0.3119   -2.6398 H         1 ATP         0.0401
     35 H5'2        1.2128   -0.0927   -2.0428 H         1 ATP         0.0401
     36 H4'         3.8044   -0.1397   -0.4040 H         1 ATP         0.1136
     37 H3'         1.6764   -1.7639    0.2728 H         1 ATP         0.0693
     38 HO3'        2.2232   -1.2979    2.3953 H         1 ATP         0.4124
     39 H2'        -0.0011    0.0027    0.0003 H         1 ATP         0.0854
     40 HO2'       -0.6141    0.5574    2.1082 H         1 ATP         0.4367
     41 H1'         1.7826    1.9024    1.6451 H         1 ATP         0.1343
     42 H8          0.7125    2.3429   -1.9292 H         1 ATP         0.3302
     43 HN62       -3.3217    6.4517    0.2629 H         1 ATP         0.4160
     44 H2         -1.5188    4.4223    3.7890 H         1 ATP         0.0756
     45 H45        -2.7470    5.7627    2.3665 H         1 ATP         0.4587
     46 H46        -1.0305    4.1680   -2.1054 H         1 ATP         0.5254
@<TRIPOS>BOND
     1    1    2 2
     2    1    3 1
     3    1    4 1
     4    1    8 1
     5    4   32 1
     6    5    6 2
     7    5    7 1
     8    5    8 1
     9    5   12 1
    10    7   33 1
    11    9   10 2
    12    9   11 1
    13    9   12 1
    14    9   13 1
    15   13   14 1
    16   14   15 1
    17   14   34 1
    18   14   35 1
    19   15   16 1
    20   15   17 1
    21   15   36 1
    22   16   21 1
    23   17   18 1
    24   17   19 1
    25   17   37 1
    26   18   38 1
    27   19   20 1
    28   19   21 1
    29   19   39 1
    30   20   40 1
    31   21   22 1
    32   21   41 1
    33   22   23 ar
    34   22   31 ar
    35   23   24 ar
    36   23   42 1
    37   24   25 ar
    38   24   46 1
    39   25   26 ar
    40   25   31 ar
    41   26   27 2
    42   26   28 ar
    43   27   43 1
    44   28   29 ar
    45   28   45 1
    46   29   30 ar
    47   29   44 1
    48   30   31 ar
@<TRIPOS>SUBSTRUCTURE
     1 ATP         1 GROUP 0 A     ****
@<TRIPOS>MOLECULE
[[[3,4-dihydroxy-5-(6-imino-7,8-dihydro-1~{H}-purin-8-ylium-9-yl)tetrahydrofuran-2-yl]methoxy-oxido-phosphoryl]oxy-hydroxy-phosphoryl] hydrogen phosphate
   46    48     1     0     0
SMALL
USER_CHARGES

@<TRIPOS>ATOM
      1 PG          0.5277   -0.0791   -6.8081 P.3       1 ATP         1.5595
      2 O1G         0.0305    1.1671   -7.5064 O.co2     1 ATP        -0.8438
      3 O2G        -0.0441   -0.5024   -5.4735 O.co2     1 ATP        -0.8438
      4 O3G         0.4106   -1.3355   -7.8444 O.3       1 ATP        -0.7800
      5 PB          3.2195   -1.1087   -6.1819 P.3       1 ATP         1.9223
      6 O1B         3.2321   -2.3927   -6.9575 O.2       1 ATP        -0.8953
      7 O2B         4.6222   -0.3051   -6.1638 O.3       1 ATP        -0.8165
      8 O3B         2.1529   -0.0062   -6.6913 O.3       1 ATP        -0.8247
      9 PA          3.5300   -2.0728   -3.4114 P.3       1 ATP         1.6157
     10 O1A         4.9024   -1.4905   -3.1520 O.co2     1 ATP        -0.8629
     11 O2A         3.3570   -3.5495   -3.6925 O.co2     1 ATP        -0.8629
     12 O3A         2.8226   -1.2346   -4.6211 O.3       1 ATP        -0.8191
     13 O5'         2.5245   -1.6648   -2.1878 O.3       1 ATP        -0.5644
     14 C5'         2.2816   -0.2918   -1.9206 C.3       1 ATP         0.2062
     15 C4'         2.7248    0.0226   -0.4980 C.3       1 ATP         0.0971
     16 O4'         2.4697    1.4219   -0.2462 O.3       1 ATP        -0.3662
     17 C3'         1.9404   -0.7419    0.5596 C.3       1 ATP         0.0734
     18 O3'         2.7418   -0.8086    1.7389 O.3       1 ATP        -0.5671
     19 C2'         0.7477    0.1630    0.7858 C.3       1 ATP         0.0745
     20 O2'         0.1373   -0.0577    2.0407 O.3       1 ATP        -0.5794
     21 C1'         1.3733    1.5427    0.6747 C.3       1 ATP         0.3824
     22 N9          0.4520    2.5240    0.1767 N.pl3     1 ATP        -0.4324
     23 C8          0.2216    2.8192   -1.0985 C.ar      1 ATP         0.2662
     24 N7         -0.6906    3.7763   -1.2384 N.pl3     1 ATP        -0.4772
     25 C5         -1.0575    4.1037    0.0366 C.ar      1 ATP        -0.1305
     26 C6         -2.0291    5.0943    0.5330 C.ar      1 ATP         0.7186
     27 N6         -2.7093    5.8371   -0.2800 N.2       1 ATP        -0.8115
     28 N1         -2.1051    5.1136    1.9204 N.pl3     1 ATP        -0.8400
     29 C2         -1.3354    4.2774    2.7129 C.ar      1 ATP         0.6671
     30 N3         -0.4707    3.3945    2.2944 N.2       1 ATP        -0.5806
     31 C4         -0.3734    3.3525    0.9220 C.ar      1 ATP         0.2748
     32 HOG3        0.6969   -2.2220   -7.5373 H         1 ATP         0.4327
     33 HOB2        5.4153   -0.7434   -5.7883 H         1 ATP         0.4701
     34 H5'1        2.8432    0.3119   -2.6398 H         1 ATP         0.0401
     35 H5'2        1.2128   -0.0927   -2.0428 H         1 ATP         0.0401
     36 H4'         3.8044   -0.1397   -0.4040 H         1 ATP         0.1136
     37 H3'         1.6764   -1.7639    0.2728 H         1 ATP         0.0693
     38 HO3'        2.2232   -1.2979    2.3953 H         1 ATP         0.4124
     39 H2'        -0.0011    0.0027    0.0003 H         1 ATP         0.0854
     40 HO2'       -0.6141    0.5574    2.1082 H         1 ATP         0.4367
     41 H1'         1.7826    1.9024    1.6451 H         1 ATP         0.1343
     42 H8          0.7125    2.3429   -1.9292 H         1 ATP         0.3302
     43 HN62       -3.3217    6.4517    0.2629 H         1 ATP         0.4160
     44 H2         -1.5188    4.4223    3.7890 H         1 ATP         0.0756
     45 H45        -2.7470    5.7627    2.3665 H         1 ATP         0.4587
     46 H46        -1.0305    4.1680   -2.1054 H         1 ATP         0.5254
@<TRIPOS>BOND
     1    1    2 2
     2    1    3 1
     3    1    4 1
     4    1    8 1
     5    4   32 1
     6    5    6 2
     7    5    7 1
     8    5    8 1
     9    5   12 1
    10    7   33 1
    11    9   10 2
    12    9   11 1
    13    9   12 1
    14    9   13 1
    15   13   14 1
    16   14   15 1
    17   14   34 1
    18   14   35 1
    19   15   16 1
    20   15   17 1
    21   15   36 1
    22   16   21 1
    23   17   18 1
    24   17   19 1
    25   17   37 1
    26   18   38 1
    27   19   20 1
    28   19   21 1
    29   19   39 1
    30   20   40 1
    31   21   22 1
    32   21   41 1
    33   22   23 ar
    34   22   31 ar
    35   23   24 ar
    36   23   42 1
    37   24   25 ar
    38   24   46 1
    39   25   26 ar
    40   25   31 ar
    41   26   27 2
    42   26   28 ar
    43   27   43 1
    44   28   29 ar
    45   28   45 1
    46   29   30 ar
    47   29   44 1
    48   30   31 ar
@<TRIPOS>SUBSTRUCTURE
     1 ATP         1 GROUP 0 A     ****
@<TRIPOS>MOLECULE
[[[3,4-dihydroxy-5-(6-imino-7,8-dihydro-1~{H}-purin-8-ylium-9-yl)tetrahydrofuran-2-yl]methoxy-oxido-phosphoryl]oxy-hydroxy-phosphoryl] hydrogen phosphate
   46    48     1     0     0
SMALL
USER_CHARGES

@<TRIPOS>ATOM
      1 PG         -2.9090   -2.7219   -4.9735 P.3       1 ATP         1.5595
      2 O1G        -2.7417   -1.8375   -6.1891 O.co2     1 ATP        -0.8438
      3 O2G        -4.1831   -2.6903   -4.1592 O.co2     1 ATP        -0.8438
      4 O3G        -2.6118   -4.2665   -5.4116 O.3       1 ATP        -0.7800
      5 PB         -1.2120   -3.2745   -2.6256 P.3       1 ATP         1.9223
      6 O1B        -2.2186   -3.2202   -1.5147 O.2       1 ATP        -0.8953
      7 O2B        -0.8368   -4.7610   -3.1384 O.3       1 ATP        -0.8165
      8 O3B        -1.6362   -2.4983   -3.9786 O.3       1 ATP        -0.8247
      9 PA          1.5543   -2.4556   -3.2404 P.3       1 ATP         1.6157
     10 O1A         1.2372   -1.5511   -4.4114 O.co2     1 ATP        -0.8629
     11 O2A         2.1275   -3.8380   -3.4641 O.co2     1 ATP        -0.8629
     12 O3A         0.2206   -2.5984   -2.3094 O.3       1 ATP        -0.8191
     13 O5'         2.5245   -1.6648   -2.1878 O.3       1 ATP        -0.5644
     14 C5'         2.2816   -0.2918   -1.9206 C.3       1 ATP         0.2062
     15 C4'         2.7248    0.0226   -0.4980 C.3       1 ATP         0.0971
     16 O4'         2.4697    1.4219   -0.2462 O.3       1 ATP        -0.3662
     17 C3'         1.9404   -0.7419    0.5596 C.3       1 ATP         0.0734
     18 O3'         2.7418   -0.8086    1.7389 O.3       1 ATP        -0.5671
     19 C2'         0.7477    0.1630    0.7858 C.3       1 ATP         0.0745
     20 O2'         0.1373   -0.0577    2.0407 O.3       1 ATP        -0.5794
     21 C1'         1.3733    1.5427    0.6747 C.3       1 ATP         0.3824
     22 N9          0.4520    2.5240    0.1767 N.pl3     1 ATP        -0.4324
     23 C8         -0.2004    2.4829   -0.9804 C.ar      1 ATP         0.2662
     24 N7         -0.9830    3.5431   -1.1568 N.pl3     1 ATP        -0.4772
     25 C5         -0.8095    4.3012   -0.0331 C.ar      1 ATP        -0.1305
     26 C6         -1.4065    5.5904    0.3585 C.ar      1 ATP         0.7186
     27 N6         -2.2501    6.2030   -0.4084 N.2       1 ATP        -0.8115
     28 N1         -0.9585    6.0272    1.5994 N.pl3     1 ATP        -0.8400
     29 C2         -0.0508    5.3009    2.3532 C.ar      1 ATP         0.6671
     30 N3          0.4890    4.1592    2.0257 N.2       1 ATP        -0.5806
     31 C4          0.0637    3.7006    0.7995 C.ar      1 ATP         0.2748
     32 HOG3       -2.6801   -4.9668   -4.7281 H         1 ATP         0.4327
     33 HOB2       -0.4485   -5.3986   -2.5020 H         1 ATP         0.4701
     34 H5'1        2.8432    0.3119   -2.6398 H         1 ATP         0.0401
     35 H5'2        1.2128   -0.0927   -2.0428 H         1 ATP         0.0401
     36 H4'         3.8044   -0.1397   -0.4040 H         1 ATP         0.1136
     37 H3'         1.6764   -1.7639    0.2728 H         1 ATP         0.0693
     38 HO3'        2.2232   -1.2979    2.3953 H         1 ATP         0.4124
     39 H2'        -0.0011    0.0027    0.0003 H         1 ATP         0.0854
     40 HO2'       -0.1563   -0.9855    2.0596 H         1 ATP         0.4367
     41 H1'         1.7826    1.9024    1.6451 H         1 ATP         0.1343
     42 H8         -0.1116    1.6863   -1.6984 H         1 ATP         0.3302
     43 HN62       -2.5420    7.0730    0.0447 H         1 ATP         0.4160
     44 H2          0.1969    5.7893    3.3086 H         1 ATP         0.0756
     45 H45        -1.3097    6.9080    1.9642 H         1 ATP         0.4587
     46 H46        -1.5735    3.7351   -1.9538 H         1 ATP         0.5254
@<TRIPOS>BOND
     1    1    2 2
     2    1    3 1
     3    1    4 1
     4    1    8 1
     5    4   32 1
     6    5    6 2
     7    5    7 1
     8    5    8 1
     9    5   12 1
    10    7   33 1
    11    9   10 2
    12    9   11 1
    13    9   12 1
    14    9   13 1
    15   13   14 1
    16   14   15 1
    17   14   34 1
    18   14   35 1
    19   15   16 1
    20   15   17 1
    21   15   36 1
    22   16   21 1
    23   17   18 1
    24   17   19 1
    25   17   37 1
    26   18   38 1
    27   19   20 1
    28   19   21 1
    29   19   39 1
    30   20   40 1
    31   21   22 1
    32   21   41 1
    33   22   23 ar
    34   22   31 ar
    35   23   24 ar
    36   23   42 1
    37   24   25 ar
    38   24   46 1
    39   25   26 ar
    40   25   31 ar
    41   26   27 2
    42   26   28 ar
    43   27   43 1
    44   28   29 ar
    45   28   45 1
    46   29   30 ar
    47   29   44 1
    48   30   31 ar
@<TRIPOS>SUBSTRUCTURE
     1 ATP         1 GROUP 0 A     ****
@<TRIPOS>MOLECULE
[[[3,4-dihydroxy-5-(6-imino-7,8-dihydro-1~{H}-purin-8-ylium-9-yl)tetrahydrofuran-2-yl]methoxy-oxido-phosphoryl]oxy-hydroxy-phosphoryl] hydrogen phosphate
   46    48     1     0     0
SMALL
USER_CHARGES

@<TRIPOS>ATOM
      1 PG          0.2917   -3.8686   -7.5759 P.3       1 ATP         1.5595
      2 O1G         0.0710   -5.3194   -7.2095 O.co2     1 ATP        -0.8438
      3 O2G         1.1099   -3.4897   -8.7902 O.co2     1 ATP        -0.8438
      4 O3G        -1.1626   -3.1336   -7.6807 O.3       1 ATP        -0.7800
      5 PB          1.1503   -1.5026   -6.0388 P.3       1 ATP         1.9223
      6 O1B         2.1327   -0.8770   -6.9843 O.2       1 ATP        -0.8953
      7 O2B        -0.3280   -0.8485   -6.0545 O.3       1 ATP        -0.8165
      8 O3B         0.8747   -3.0779   -6.2740 O.3       1 ATP        -0.8247
      9 PA          2.8603   -2.1314   -3.7189 P.3       1 ATP         1.6157
     10 O1A         4.1108   -1.4269   -4.1982 O.co2     1 ATP        -0.8629
     11 O2A         2.7468   -3.6387   -3.7889 O.co2     1 ATP        -0.8629
     12 O3A         1.5677   -1.4844   -4.4784 O.3       1 ATP        -0.8191
     13 O5'         2.5245   -1.6648   -2.1878 O.3       1 ATP        -0.5644
     14 C5'         2.2816   -0.2918   -1.9206 C.3       1 ATP         0.2062
     15 C4'         2.7248    0.0226   -0.4980 C.3       1 ATP         0.0971
     16 O4'         2.4697    1.4219   -0.2462 O.3       1 ATP        -0.3662
     17 C3'         1.9404   -0.7419    0.5596 C.3       1 ATP         0.0734
     18 O3'         2.7418   -0.8086    1.7389 O.3       1 ATP        -0.5671
     19 C2'         0.7477    0.1630    0.7858 C.3       1 ATP         0.0745
     20 O2'         0.1373   -0.0577    2.0407 O.3       1 ATP        -0.5794
     21 C1'         1.3733    1.5427    0.6747 C.3       1 ATP         0.3824
     22 N9          0.4520    2.5240    0.1767 N.pl3     1 ATP        -0.4324
     23 C8          0.2216    2.8192   -1.0985 C.ar      1 ATP         0.2662
     24 N7         -0.6906    3.7763   -1.2384 N.pl3     1 ATP        -0.4772
     25 C5         -1.0575    4.1037    0.0366 C.ar      1 ATP        -0.1305
     26 C6         -2.0291    5.0943    0.5330 C.ar      1 ATP         0.7186
     27 N6         -2.7093    5.8371   -0.2800 N.2       1 ATP        -0.8115
     28 N1         -2.1051    5.1136    1.9204 N.pl3     1 ATP        -0.8400
     29 C2         -1.3354    4.2774    2.7129 C.ar      1 ATP         0.6671
     30 N3         -0.4707    3.3945    2.2944 N.2       1 ATP        -0.5806
     31 C4         -0.3734    3.3525    0.9220 C.ar      1 ATP         0.2748
     32 HOG3       -1.1883   -2.1808   -7.9125 H         1 ATP         0.4327
     33 HOB2       -0.4292    0.1009   -5.8293 H         1 ATP         0.4701
     34 H5'1        2.8432    0.3119   -2.6398 H         1 ATP         0.0401
     35 H5'2        1.2128   -0.0927   -2.0428 H         1 ATP         0.0401
     36 H4'         3.8044   -0.1397   -0.4040 H         1 ATP         0.1136
     37 H3'         1.6764   -1.7639    0.2728 H         1 ATP         0.0693
     38 HO3'        2.2232   -1.2979    2.3953 H         1 ATP         0.4124
     39 H2'        -0.0011    0.0027    0.0003 H         1 ATP         0.0854
     40 HO2'       -0.1563   -0.9855    2.0596 H         1 ATP         0.4367
     41 H1'         1.7826    1.9024    1.6451 H         1 ATP         0.1343
     42 H8          0.7125    2.3429   -1.9292 H         1 ATP         0.3302
     43 HN62       -3.3217    6.4517    0.2629 H         1 ATP         0.4160
     44 H2         -1.5188    4.4223    3.7890 H         1 ATP         0.0756
     45 H45        -2.7470    5.7627    2.3665 H         1 ATP         0.4587
     46 H46        -1.0305    4.1680   -2.1054 H         1 ATP         0.5254
@<TRIPOS>BOND
     1    1    2 2
     2    1    3 1
     3    1    4 1
     4    1    8 1
     5    4   32 1
     6    5    6 2
     7    5    7 1
     8    5    8 1
     9    5   12 1
    10    7   33 1
    11    9   10 2
    12    9   11 1
    13    9   12 1
    14    9   13 1
    15   13   14 1
    16   14   15 1
    17   14   34 1
    18   14   35 1
    19   15   16 1
    20   15   17 1
    21   15   36 1
    22   16   21 1
    23   17   18 1
    24   17   19 1
    25   17   37 1
    26   18   38 1
    27   19   20 1
    28   19   21 1
    29   19   39 1
    30   20   40 1
    31   21   22 1
    32   21   41 1
    33   22   23 ar
    34   22   31 ar
    35   23   24 ar
    36   23   42 1
    37   24   25 ar
    38   24   46 1
    39   25   26 ar
    40   25   31 ar
    41   26   27 2
    42   26   28 ar
    43   27   43 1
    44   28   29 ar
    45   28   45 1
    46   29   30 ar
    47   29   44 1
    48   30   31 ar
@<TRIPOS>SUBSTRUCTURE
     1 ATP         1 GROUP 0 A     ****
@<TRIPOS>MOLECULE
[[[3,4-dihydroxy-5-(6-imino-7,8-dihydro-1~{H}-purin-8-ylium-9-yl)tetrahydrofuran-2-yl]methoxy-oxido-phosphoryl]oxy-hydroxy-phosphoryl] hydrogen phosphate
   46    48     1     0     0
SMALL
USER_CHARGES

@<TRIPOS>ATOM
      1 PG          5.7978   -0.1000   -6.9445 P.3       1 ATP         1.5595
      2 O1G         6.8374    0.9568   -7.2445 O.co2     1 ATP        -0.8438
      3 O2G         4.3717    0.0547   -7.4239 O.co2     1 ATP        -0.8438
      4 O3G         6.3633   -1.5435   -7.4573 O.3       1 ATP        -0.7800
      5 PB          5.0039   -1.5143   -4.4813 P.3       1 ATP         1.9223
      6 O1B         5.3206   -2.9355   -4.8419 O.2       1 ATP        -0.8953
      7 O2B         5.3162   -1.1106   -2.9474 O.3       1 ATP        -0.8165
      8 O3B         5.7907   -0.3935   -5.3402 O.3       1 ATP        -0.8247
      9 PA          2.7406    0.3767   -4.4296 P.3       1 ATP         1.6157
     10 O1A         1.2546    0.2225   -4.6703 O.co2     1 ATP        -0.8629
     11 O2A         3.5320    1.4518   -5.1421 O.co2     1 ATP        -0.8629
     12 O3A         3.4692   -1.0595   -4.6990 O.3       1 ATP        -0.8191
     13 O5'         3.0213    0.5153   -2.8245 O.3       1 ATP        -0.5644
     14 C5'         2.2816   -0.2918   -1.9206 C.3       1 ATP         0.2062
     15 C4'         2.7248    0.0226   -0.4980 C.3       1 ATP         0.0971
     16 O4'         2.4697    1.4219   -0.2462 O.3       1 ATP        -0.3662
     17 C3'         1.9404   -0.7419    0.5596 C.3       1 ATP         0.0734
     18 O3'         2.7418   -0.8086    1.7389 O.3       1 ATP        -0.5671
     19 C2'         0.7477    0.1630    0.7858 C.3       1 ATP         0.0745
     20 O2'         0.1373   -0.0577    2.0407 O.3       1 ATP        -0.5794
     21 C1'         1.3733    1.5427    0.6747 C.3       1 ATP         0.3824
     22 N9          0.4520    2.5240    0.1767 N.pl3     1 ATP        -0.4324
     23 C8          0.2216    2.8192   -1.0985 C.ar      1 ATP         0.2662
     24 N7         -0.6906    3.7763   -1.2384 N.pl3     1 ATP        -0.4772
     25 C5         -1.0575    4.1037    0.0366 C.ar      1 ATP        -0.1305
     26 C6         -2.0291    5.0943    0.5330 C.ar      1 ATP         0.7186
     27 N6         -2.7093    5.8371   -0.2800 N.2       1 ATP        -0.8115
     28 N1         -2.1051    5.1136    1.9204 N.pl3     1 ATP        -0.8400
     29 C2         -1.3354    4.2774    2.7129 C.ar      1 ATP         0.6671
     30 N3         -0.4707    3.3945    2.2944 N.2       1 ATP        -0.5806
     31 C4         -0.3734    3.3525    0.9220 C.ar      1 ATP         0.2748
     32 HOG3        5.7996   -2.3365   -7.3327 H         1 ATP         0.4327
     33 HOB2        6.2355   -1.1883   -2.6140 H         1 ATP         0.4701
     34 H5'1        1.2163   -0.0770   -2.0471 H         1 ATP         0.0401
     35 H5'2        2.4655   -1.3443   -2.1563 H         1 ATP         0.0401
     36 H4'         3.8044   -0.1397   -0.4040 H         1 ATP         0.1136
     37 H3'         1.6764   -1.7639    0.2728 H         1 ATP         0.0693
     38 HO3'        2.2232   -1.2979    2.3953 H         1 ATP         0.4124
     39 H2'        -0.0011    0.0027    0.0003 H         1 ATP         0.0854
     40 HO2'       -0.6141    0.5574    2.1082 H         1 ATP         0.4367
     41 H1'         1.7826    1.9024    1.6451 H         1 ATP         0.1343
     42 H8          0.7125    2.3429   -1.9292 H         1 ATP         0.3302
     43 HN62       -3.3217    6.4517    0.2629 H         1 ATP         0.4160
     44 H2         -1.5188    4.4223    3.7890 H         1 ATP         0.0756
     45 H45        -2.7470    5.7627    2.3665 H         1 ATP         0.4587
     46 H46        -1.0305    4.1680   -2.1054 H         1 ATP         0.5254
@<TRIPOS>BOND
     1    1    2 2
     2    1    3 1
     3    1    4 1
     4    1    8 1
     5    4   32 1
     6    5    6 2
     7    5    7 1
     8    5    8 1
     9    5   12 1
    10    7   33 1
    11    9   10 2
    12    9   11 1
    13    9   12 1
    14    9   13 1
    15   13   14 1
    16   14   15 1
    17   14   34 1
    18   14   35 1
    19   15   16 1
    20   15   17 1
    21   15   36 1
    22   16   21 1
    23   17   18 1
    24   17   19 1
    25   17   37 1
    26   18   38 1
    27   19   20 1
    28   19   21 1
    29   19   39 1
    30   20   40 1
    31   21   22 1
    32   21   41 1
    33   22   23 ar
    34   22   31 ar
    35   23   24 ar
    36   23   42 1
    37   24   25 ar
    38   24   46 1
    39   25   26 ar
    40   25   31 ar
    41   26   27 2
    42   26   28 ar
    43   27   43 1
    44   28   29 ar
    45   28   45 1
    46   29   30 ar
    47   29   44 1
    48   30   31 ar
@<TRIPOS>SUBSTRUCTURE
     1 ATP         1 GROUP 0 A     ****
@<TRIPOS>MOLECULE
[[[3,4-dihydroxy-5-(6-imino-7,8-dihydro-1~{H}-purin-8-ylium-9-yl)tetrahydrofuran-2-yl]methoxy-oxido-phosphoryl]oxy-hydroxy-phosphoryl] hydrogen phosphate
   46    48     1     0     0
SMALL
USER_CHARGES

@<TRIPOS>ATOM
      1 PG          8.0749   -3.7728   -3.6687 P.3       1 ATP         1.5595
      2 O1G         7.8453   -4.7255   -4.8208 O.co2     1 ATP        -0.8438
      3 O2G         8.6341   -4.2656   -2.3527 O.co2     1 ATP        -0.8438
      4 O3G         9.0023   -2.5364   -4.1955 O.3       1 ATP        -0.7800
      5 PB          5.2647   -3.4496   -2.8342 P.3       1 ATP         1.9223
      6 O1B         4.5855   -4.4889   -3.6761 O.2       1 ATP        -0.8953
      7 O2B         5.5750   -3.8963   -1.3118 O.3       1 ATP        -0.8165
      8 O3B         6.6983   -2.9454   -3.3852 O.3       1 ATP        -0.8247
      9 PA          4.0008   -0.9665   -3.8026 P.3       1 ATP         1.6157
     10 O1A         2.9520   -1.6091   -4.6841 O.co2     1 ATP        -0.8629
     11 O2A         5.2365   -0.3346   -4.4057 O.co2     1 ATP        -0.8629
     12 O3A         4.4765   -2.0485   -2.6761 O.3       1 ATP        -0.8191
     13 O5'         3.2903    0.1346   -2.8241 O.3       1 ATP        -0.5644
     14 C5'         2.2816   -0.2918   -1.9206 C.3       1 ATP         0.2062
     15 C4'         2.7248    0.0226   -0.4980 C.3       1 ATP         0.0971
     16 O4'         2.4697    1.4219   -0.2462 O.3       1 ATP        -0.3662
     17 C3'         1.9404   -0.7419    0.5596 C.3       1 ATP         0.0734
     18 O3'         2.7418   -0.8086    1.7389 O.3       1 ATP        -0.5671
     19 C2'         0.7477    0.1630    0.7858 C.3       1 ATP         0.0745
     20 O2'         0.1373   -0.0577    2.0407 O.3       1 ATP        -0.5794
     21 C1'         1.3733    1.5427    0.6747 C.3       1 ATP         0.3824
     22 N9          0.4520    2.5240    0.1767 N.pl3     1 ATP        -0.4324
     23 C8          0.2216    2.8192   -1.0985 C.ar      1 ATP         0.2662
     24 N7         -0.6906    3.7763   -1.2384 N.pl3     1 ATP        -0.4772
     25 C5         -1.0575    4.1037    0.0366 C.ar      1 ATP        -0.1305
     26 C6         -2.0291    5.0943    0.5330 C.ar      1 ATP         0.7186
     27 N6         -2.7093    5.8371   -0.2800 N.2       1 ATP        -0.8115
     28 N1         -2.1051    5.1136    1.9204 N.pl3     1 ATP        -0.8400
     29 C2         -1.3354    4.2774    2.7129 C.ar      1 ATP         0.6671
     30 N3         -0.4707    3.3945    2.2944 N.2       1 ATP        -0.5806
     31 C4         -0.3734    3.3525    0.9220 C.ar      1 ATP         0.2748
     32 HOG3        9.2415   -1.8286   -3.5599 H         1 ATP         0.4327
     33 HOB2        6.1529   -4.6729   -1.1536 H         1 ATP         0.4701
     34 H5'1        1.3514    0.2330   -2.1577 H         1 ATP         0.0401
     35 H5'2        2.1280   -1.3678   -2.0460 H         1 ATP         0.0401
     36 H4'         3.8044   -0.1397   -0.4040 H         1 ATP         0.1136
     37 H3'         1.6764   -1.7639    0.2728 H         1 ATP         0.0693
     38 HO3'        2.2232   -1.2979    2.3953 H         1 ATP         0.4124
     39 H2'        -0.0011    0.0027    0.0003 H         1 ATP         0.0854
     40 HO2'       -0.6141    0.5574    2.1082 H         1 ATP         0.4367
     41 H1'         1.7826    1.9024    1.6451 H         1 ATP         0.1343
     42 H8          0.7125    2.3429   -1.9292 H         1 ATP         0.3302
     43 HN62       -3.3217    6.4517    0.2629 H         1 ATP         0.4160
     44 H2         -1.5188    4.4223    3.7890 H         1 ATP         0.0756
     45 H45        -2.7470    5.7627    2.3665 H         1 ATP         0.4587
     46 H46        -1.0305    4.1680   -2.1054 H         1 ATP         0.5254
@<TRIPOS>BOND
     1    1    2 2
     2    1    3 1
     3    1    4 1
     4    1    8 1
     5    4   32 1
     6    5    6 2
     7    5    7 1
     8    5    8 1
     9    5   12 1
    10    7   33 1
    11    9   10 2
    12    9   11 1
    13    9   12 1
    14    9   13 1
    15   13   14 1
    16   14   15 1
    17   14   34 1
    18   14   35 1
    19   15   16 1
    20   15   17 1
    21   15   36 1
    22   16   21 1
    23   17   18 1
    24   17   19 1
    25   17   37 1
    26   18   38 1
    27   19   20 1
    28   19   21 1
    29   19   39 1
    30   20   40 1
    31   21   22 1
    32   21   41 1
    33   22   23 ar
    34   22   31 ar
    35   23   24 ar
    36   23   42 1
    37   24   25 ar
    38   24   46 1
    39   25   26 ar
    40   25   31 ar
    41   26   27 2
    42   26   28 ar
    43   27   43 1
    44   28   29 ar
    45   28   45 1
    46   29   30 ar
    47   29   44 1
    48   30   31 ar
@<TRIPOS>SUBSTRUCTURE
     1 ATP         1 GROUP 0 A     ****
@<TRIPOS>MOLECULE
[[[3,4-dihydroxy-5-(6-imino-7,8-dihydro-1~{H}-purin-8-ylium-9-yl)tetrahydrofuran-2-yl]methoxy-oxido-phosphoryl]oxy-hydroxy-phosphoryl] hydrogen phosphate
   46    48     1     0     0
SMALL
USER_CHARGES

@<TRIPOS>ATOM
      1 PG          2.6556    0.8144   -8.2197 P.3       1 ATP         1.5595
      2 O1G         1.5556    0.1560   -9.0224 O.co2     1 ATP        -0.8438
      3 O2G         4.0084    1.0913   -8.8368 O.co2     1 ATP        -0.8438
      4 O3G         2.0772    2.2065   -7.5924 O.3       1 ATP        -0.7800
      5 PB          1.7982   -0.4434   -5.6937 P.3       1 ATP         1.9223
      6 O1B         1.0829    0.6935   -5.0258 O.2       1 ATP        -0.8953
      7 O2B         0.8417   -1.5068   -6.4472 O.3       1 ATP        -0.8165
      8 O3B         2.8642   -0.0144   -6.8306 O.3       1 ATP        -0.8247
      9 PA          4.0008   -0.9665   -3.8026 P.3       1 ATP         1.6157
     10 O1A         5.0349   -0.2794   -4.6679 O.co2     1 ATP        -0.8629
     11 O2A         4.3698   -2.1727   -2.9668 O.co2     1 ATP        -0.8629
     12 O3A         2.7156   -1.3594   -4.7300 O.3       1 ATP        -0.8191
     13 O5'         3.2903    0.1346   -2.8241 O.3       1 ATP        -0.5644
     14 C5'         2.2816   -0.2918   -1.9206 C.3       1 ATP         0.2062
     15 C4'         2.7248    0.0226   -0.4980 C.3       1 ATP         0.0971
     16 O4'         2.4697    1.4219   -0.2462 O.3       1 ATP        -0.3662
     17 C3'         1.9404   -0.7419    0.5596 C.3       1 ATP         0.0734
     18 O3'         2.7418   -0.8086    1.7389 O.3       1 ATP        -0.5671
     19 C2'         0.7477    0.1630    0.7858 C.3       1 ATP         0.0745
     20 O2'         0.1373   -0.0577    2.0407 O.3       1 ATP        -0.5794
     21 C1'         1.3733    1.5427    0.6747 C.3       1 ATP         0.3824
     22 N9          0.4520    2.5240    0.1767 N.pl3     1 ATP        -0.4324
     23 C8          0.2216    2.8192   -1.0985 C.ar      1 ATP         0.2662
     24 N7         -0.6906    3.7763   -1.2384 N.pl3     1 ATP        -0.4772
     25 C5         -1.0575    4.1037    0.0366 C.ar      1 ATP        -0.1305
     26 C6         -2.0291    5.0943    0.5330 C.ar      1 ATP         0.7186
     27 N6         -2.7093    5.8371   -0.2800 N.2       1 ATP        -0.8115
     28 N1         -2.1051    5.1136    1.9204 N.pl3     1 ATP        -0.8400
     29 C2         -1.3354    4.2774    2.7129 C.ar      1 ATP         0.6671
     30 N3         -0.4707    3.3945    2.2944 N.2       1 ATP        -0.5806
     31 C4         -0.3734    3.3525    0.9220 C.ar      1 ATP         0.2748
     32 HOG3        2.6758    2.7543   -7.0413 H         1 ATP         0.4327
     33 HOB2        0.2656   -1.1932   -7.1767 H         1 ATP         0.4701
     34 H5'1        1.3514    0.2330   -2.1577 H         1 ATP         0.0401
     35 H5'2        2.1280   -1.3678   -2.0460 H         1 ATP         0.0401
     36 H4'         3.8044   -0.1397   -0.4040 H         1 ATP         0.1136
     37 H3'         1.6764   -1.7639    0.2728 H         1 ATP         0.0693
     38 HO3'        2.2232   -1.2979    2.3953 H         1 ATP         0.4124
     39 H2'        -0.0011    0.0027    0.0003 H         1 ATP         0.0854
     40 HO2'       -0.6141    0.5574    2.1082 H         1 ATP         0.4367
     41 H1'         1.7826    1.9024    1.6451 H         1 ATP         0.1343
     42 H8          0.7125    2.3429   -1.9292 H         1 ATP         0.3302
     43 HN62       -3.3217    6.4517    0.2629 H         1 ATP         0.4160
     44 H2         -1.5188    4.4223    3.7890 H         1 ATP         0.0756
     45 H45        -2.7470    5.7627    2.3665 H         1 ATP         0.4587
     46 H46        -1.0305    4.1680   -2.1054 H         1 ATP         0.5254
@<TRIPOS>BOND
     1    1    2 2
     2    1    3 1
     3    1    4 1
     4    1    8 1
     5    4   32 1
     6    5    6 2
     7    5    7 1
     8    5    8 1
     9    5   12 1
    10    7   33 1
    11    9   10 2
    12    9   11 1
    13    9   12 1
    14    9   13 1
    15   13   14 1
    16   14   15 1
    17   14   34 1
    18   14   35 1
    19   15   16 1
    20   15   17 1
    21   15   36 1
    22   16   21 1
    23   17   18 1
    24   17   19 1
    25   17   37 1
    26   18   38 1
    27   19   20 1
    28   19   21 1
    29   19   39 1
    30   20   40 1
    31   21   22 1
    32   21   41 1
    33   22   23 ar
    34   22   31 ar
    35   23   24 ar
    36   23   42 1
    37   24   25 ar
    38   24   46 1
    39   25   26 ar
    40   25   31 ar
    41   26   27 2
    42   26   28 ar
    43   27   43 1
    44   28   29 ar
    45   28   45 1
    46   29   30 ar
    47   29   44 1
    48   30   31 ar
@<TRIPOS>SUBSTRUCTURE
     1 ATP         1 GROUP 0 A     ****
@<TRIPOS>MOLECULE
[[[3,4-dihydroxy-5-(6-imino-7,8-dihydro-1~{H}-purin-8-ylium-9-yl)tetrahydrofuran-2-yl]methoxy-oxido-phosphoryl]oxy-hydroxy-phosphoryl] hydrogen phosphate
   46    48     1     0     0
SMALL
USER_CHARGES

@<TRIPOS>ATOM
      1 PG          7.1548   -1.7551   -5.8134 P.3       1 ATP         1.5595
      2 O1G         7.3272   -3.1051   -6.4732 O.co2     1 ATP        -0.8438
      3 O2G         8.0460   -1.3310   -4.6674 O.co2     1 ATP        -0.8438
      4 O3G         7.2119   -0.6025   -6.9686 O.3       1 ATP        -0.7800
      5 PB          4.8132   -0.3013   -4.7638 P.3       1 ATP         1.9223
      6 O1B         5.3487    0.2209   -3.4635 O.2       1 ATP        -0.8953
      7 O2B         4.8177    0.7606   -5.9827 O.3       1 ATP        -0.8165
      8 O3B         5.5957   -1.5805   -5.3674 O.3       1 ATP        -0.8247
      9 PA          2.6194   -2.0514   -3.8552 P.3       1 ATP         1.6157
     10 O1A         3.4097   -3.3216   -4.0830 O.co2     1 ATP        -0.8629
     11 O2A         1.1233   -2.0206   -4.0799 O.co2     1 ATP        -0.8629
     12 O3A         3.2936   -0.8480   -4.7290 O.3       1 ATP        -0.8191
     13 O5'         2.9216   -1.4836   -2.3516 O.3       1 ATP        -0.5644
     14 C5'         2.2816   -0.2918   -1.9206 C.3       1 ATP         0.2062
     15 C4'         2.7248    0.0226   -0.4980 C.3       1 ATP         0.0971
     16 O4'         2.4697    1.4219   -0.2462 O.3       1 ATP        -0.3662
     17 C3'         1.9404   -0.7419    0.5596 C.3       1 ATP         0.0734
     18 O3'         2.7418   -0.8086    1.7389 O.3       1 ATP        -0.5671
     19 C2'         0.7477    0.1630    0.7858 C.3       1 ATP         0.0745
     20 O2'         0.1373   -0.0577    2.0407 O.3       1 ATP        -0.5794
     21 C1'         1.3733    1.5427    0.6747 C.3       1 ATP         0.3824
     22 N9          0.4520    2.5240    0.1767 N.pl3     1 ATP        -0.4324
     23 C8          0.2216    2.8192   -1.0985 C.ar      1 ATP         0.2662
     24 N7         -0.6906    3.7763   -1.2384 N.pl3     1 ATP        -0.4772
     25 C5         -1.0575    4.1037    0.0366 C.ar      1 ATP        -0.1305
     26 C6         -2.0291    5.0943    0.5330 C.ar      1 ATP         0.7186
     27 N6         -2.7093    5.8371   -0.2800 N.2       1 ATP        -0.8115
     28 N1         -2.1051    5.1136    1.9204 N.pl3     1 ATP        -0.8400
     29 C2         -1.3354    4.2774    2.7129 C.ar      1 ATP         0.6671
     30 N3         -0.4707    3.3945    2.2944 N.2       1 ATP        -0.5806
     31 C4         -0.3734    3.3525    0.9220 C.ar      1 ATP         0.2748
     32 HOG3        7.1144    0.3351   -6.6975 H         1 ATP         0.4327
     33 HOB2        4.3057    1.5922   -5.8895 H         1 ATP         0.4701
     34 H5'1        2.5589    0.5217   -2.5976 H         1 ATP         0.0401
     35 H5'2        1.1982   -0.4388   -1.9617 H         1 ATP         0.0401
     36 H4'         3.8044   -0.1397   -0.4040 H         1 ATP         0.1136
     37 H3'         1.6764   -1.7639    0.2728 H         1 ATP         0.0693
     38 HO3'        2.2232   -1.2979    2.3953 H         1 ATP         0.4124
     39 H2'        -0.0011    0.0027    0.0003 H         1 ATP         0.0854
     40 HO2'       -0.1563   -0.9855    2.0596 H         1 ATP         0.4367
     41 H1'         1.7826    1.9024    1.6451 H         1 ATP         0.1343
     42 H8          0.7125    2.3429   -1.9292 H         1 ATP         0.3302
     43 HN62       -3.3217    6.4517    0.2629 H         1 ATP         0.4160
     44 H2         -1.5188    4.4223    3.7890 H         1 ATP         0.0756
     45 H45        -2.7470    5.7627    2.3665 H         1 ATP         0.4587
     46 H46        -1.0305    4.1680   -2.1054 H         1 ATP         0.5254
@<TRIPOS>BOND
     1    1    2 2
     2    1    3 1
     3    1    4 1
     4    1    8 1
     5    4   32 1
     6    5    6 2
     7    5    7 1
     8    5    8 1
     9    5   12 1
    10    7   33 1
    11    9   10 2
    12    9   11 1
    13    9   12 1
    14    9   13 1
    15   13   14 1
    16   14   15 1
    17   14   34 1
    18   14   35 1
    19   15   16 1
    20   15   17 1
    21   15   36 1
    22   16   21 1
    23   17   18 1
    24   17   19 1
    25   17   37 1
    26   18   38 1
    27   19   20 1
    28   19   21 1
    29   19   39 1
    30   20   40 1
    31   21   22 1
    32   21   41 1
    33   22   23 ar
    34   22   31 ar
    35   23   24 ar
    36   23   42 1
    37   24   25 ar
    38   24   46 1
    39   25   26 ar
    40   25   31 ar
    41   26   27 2
    42   26   28 ar
    43   27   43 1
    44   28   29 ar
    45   28   45 1
    46   29   30 ar
    47   29   44 1
    48   30   31 ar
@<TRIPOS>SUBSTRUCTURE
     1 ATP         1 GROUP 0 A     ****
@<TRIPOS>MOLECULE
[[[3,4-dihydroxy-5-(6-imino-7,8-dihydro-1~{H}-purin-8-ylium-9-yl)tetrahydrofuran-2-yl]methoxy-oxido-phosphoryl]oxy-hydroxy-phosphoryl] hydrogen phosphate
   46    48     1     0     0
SMALL
USER_CHARGES

@<TRIPOS>ATOM
      1 PG          2.4920   -1.1008   -7.4347 P.3       1 ATP         1.5595
      2 O1G         1.3938   -1.0517   -6.3958 O.co2     1 ATP        -0.8438
      3 O2G         2.6534   -2.3025   -8.3386 O.co2     1 ATP        -0.8438
      4 O3G         2.3856    0.2370   -8.3649 O.3       1 ATP        -0.7800
      5 PB          4.7537   -1.6365   -5.6192 P.3       1 ATP         1.9223
      6 O1B         5.1667   -3.0097   -6.0596 O.2       1 ATP        -0.8953
      7 O2B         5.9703   -0.6519   -5.2141 O.3       1 ATP        -0.8165
      8 O3B         3.9188   -0.7848   -6.7103 O.3       1 ATP        -0.8247
      9 PA          3.9668   -2.1113   -2.8163 P.3       1 ATP         1.6157
     10 O1A         5.0717   -1.3104   -2.1623 O.co2     1 ATP        -0.8629
     11 O2A         4.0213   -3.6232   -2.8462 O.co2     1 ATP        -0.8629
     12 O3A         3.7625   -1.5756   -4.3451 O.3       1 ATP        -0.8191
     13 O5'         2.5245   -1.6648   -2.1878 O.3       1 ATP        -0.5644
     14 C5'         2.2816   -0.2918   -1.9206 C.3       1 ATP         0.2062
     15 C4'         2.7248    0.0226   -0.4980 C.3       1 ATP         0.0971
     16 O4'         2.4697    1.4219   -0.2462 O.3       1 ATP        -0.3662
     17 C3'         1.9404   -0.7419    0.5596 C.3       1 ATP         0.0734
     18 O3'         2.7418   -0.8086    1.7389 O.3       1 ATP        -0.5671
     19 C2'         0.7477    0.1630    0.7858 C.3       1 ATP         0.0745
     20 O2'         0.1373   -0.0577    2.0407 O.3       1 ATP        -0.5794
     21 C1'         1.3733    1.5427    0.6747 C.3       1 ATP         0.3824
     22 N9          0.4520    2.5240    0.1767 N.pl3     1 ATP        -0.4324
     23 C8          0.2216    2.8192   -1.0985 C.ar      1 ATP         0.2662
     24 N7         -0.6906    3.7763   -1.2384 N.pl3     1 ATP        -0.4772
     25 C5         -1.0575    4.1037    0.0366 C.ar      1 ATP        -0.1305
     26 C6         -2.0291    5.0943    0.5330 C.ar      1 ATP         0.7186
     27 N6         -2.7093    5.8371   -0.2800 N.2       1 ATP        -0.8115
     28 N1         -2.1051    5.1136    1.9204 N.pl3     1 ATP        -0.8400
     29 C2         -1.3354    4.2774    2.7129 C.ar      1 ATP         0.6671
     30 N3         -0.4707    3.3945    2.2944 N.2       1 ATP        -0.5806
     31 C4         -0.3734    3.3525    0.9220 C.ar      1 ATP         0.2748
     32 HOG3        3.0346    0.3533   -9.0911 H         1 ATP         0.4327
     33 HOB2        6.5675   -0.9124   -4.4808 H         1 ATP         0.4701
     34 H5'1        2.8432    0.3119   -2.6398 H         1 ATP         0.0401
     35 H5'2        1.2128   -0.0927   -2.0428 H         1 ATP         0.0401
     36 H4'         3.8044   -0.1397   -0.4040 H         1 ATP         0.1136
     37 H3'         1.6764   -1.7639    0.2728 H         1 ATP         0.0693
     38 HO3'        2.2232   -1.2979    2.3953 H         1 ATP         0.4124
     39 H2'        -0.0011    0.0027    0.0003 H         1 ATP         0.0854
     40 HO2'       -0.6141    0.5574    2.1082 H         1 ATP         0.4367
     41 H1'         1.7826    1.9024    1.6451 H         1 ATP         0.1343
     42 H8          0.7125    2.3429   -1.9292 H         1 ATP         0.3302
     43 HN62       -3.3217    6.4517    0.2629 H         1 ATP         0.4160
     44 H2         -1.5188    4.4223    3.7890 H         1 ATP         0.0756
     45 H45        -2.7470    5.7627    2.3665 H         1 ATP         0.4587
     46 H46        -1.0305    4.1680   -2.1054 H         1 ATP         0.5254
@<TRIPOS>BOND
     1    1    2 2
     2    1    3 1
     3    1    4 1
     4    1    8 1
     5    4   32 1
     6    5    6 2
     7    5    7 1
     8    5    8 1
     9    5   12 1
    10    7   33 1
    11    9   10 2
    12    9   11 1
    13    9   12 1
    14    9   13 1
    15   13   14 1
    16   14   15 1
    17   14   34 1
    18   14   35 1
    19   15   16 1
    20   15   17 1
    21   15   36 1
    22   16   21 1
    23   17   18 1
    24   17   19 1
    25   17   37 1
    26   18   38 1
    27   19   20 1
    28   19   21 1
    29   19   39 1
    30   20   40 1
    31   21   22 1
    32   21   41 1
    33   22   23 ar
    34   22   31 ar
    35   23   24 ar
    36   23   42 1
    37   24   25 ar
    38   24   46 1
    39   25   26 ar
    40   25   31 ar
    41   26   27 2
    42   26   28 ar
    43   27   43 1
    44   28   29 ar
    45   28   45 1
    46   29   30 ar
    47   29   44 1
    48   30   31 ar
@<TRIPOS>SUBSTRUCTURE
     1 ATP         1 GROUP 0 A     ****
@<TRIPOS>MOLECULE
[[[3,4-dihydroxy-5-(6-imino-7,8-dihydro-1~{H}-purin-8-ylium-9-yl)tetrahydrofuran-2-yl]methoxy-oxido-phosphoryl]oxy-hydroxy-phosphoryl] hydrogen phosphate
   46    48     1     0     0
SMALL
USER_CHARGES

@<TRIPOS>ATOM
      1 PG          8.7963   -0.5150   -4.9367 P.3       1 ATP         1.5595
      2 O1G         9.0975    0.8215   -5.5775 O.co2     1 ATP        -0.8438
      3 O2G         8.9542   -1.8026   -5.7142 O.co2     1 ATP        -0.8438
      4 O3G         9.6596   -0.6340   -3.5559 O.3       1 ATP        -0.7800
      5 PB          6.5206   -1.5364   -3.3633 P.3       1 ATP         1.9223
      6 O1B         6.3168   -2.8876   -3.9821 O.2       1 ATP        -0.8953
      7 O2B         7.3623   -1.5346   -1.9830 O.3       1 ATP        -0.8165
      8 O3B         7.3003   -0.4649   -4.2889 O.3       1 ATP        -0.8247
      9 PA          3.9552   -0.2066   -3.9564 P.3       1 ATP         1.6157
     10 O1A         3.2311   -1.4130   -4.5133 O.co2     1 ATP        -0.8629
     11 O2A         4.4938    0.8658   -4.8783 O.co2     1 ATP        -0.8629
     12 O3A         5.1749   -0.7199   -2.9999 O.3       1 ATP        -0.8191
     13 O5'         3.0213    0.5153   -2.8245 O.3       1 ATP        -0.5644
     14 C5'         2.2816   -0.2918   -1.9206 C.3       1 ATP         0.2062
     15 C4'         2.7248    0.0226   -0.4980 C.3       1 ATP         0.0971
     16 O4'         2.4697    1.4219   -0.2462 O.3       1 ATP        -0.3662
     17 C3'         1.9404   -0.7419    0.5596 C.3       1 ATP         0.0734
     18 O3'         2.7418   -0.8086    1.7389 O.3       1 ATP        -0.5671
     19 C2'         0.7477    0.1630    0.7858 C.3       1 ATP         0.0745
     20 O2'         0.1373   -0.0577    2.0407 O.3       1 ATP        -0.5794
     21 C1'         1.3733    1.5427    0.6747 C.3       1 ATP         0.3824
     22 N9          0.4520    2.5240    0.1767 N.pl3     1 ATP        -0.4324
     23 C8          0.2216    2.8192   -1.0985 C.ar      1 ATP         0.2662
     24 N7         -0.6906    3.7763   -1.2384 N.pl3     1 ATP        -0.4772
     25 C5         -1.0575    4.1037    0.0366 C.ar      1 ATP        -0.1305
     26 C6         -2.0291    5.0943    0.5330 C.ar      1 ATP         0.7186
     27 N6         -2.7093    5.8371   -0.2800 N.2       1 ATP        -0.8115
     28 N1         -2.1051    5.1136    1.9204 N.pl3     1 ATP        -0.8400
     29 C2         -1.3354    4.2774    2.7129 C.ar      1 ATP         0.6671
     30 N3         -0.4707    3.3945    2.2944 N.2       1 ATP        -0.5806
     31 C4         -0.3734    3.3525    0.9220 C.ar      1 ATP         0.2748
     32 HOG3        9.5725   -1.4509   -3.0199 H         1 ATP         0.4327
     33 HOB2        7.0187   -2.0419   -1.2170 H         1 ATP         0.4701
     34 H5'1        1.2163   -0.0770   -2.0471 H         1 ATP         0.0401
     35 H5'2        2.4655   -1.3443   -2.1563 H         1 ATP         0.0401
     36 H4'         3.8044   -0.1397   -0.4040 H         1 ATP         0.1136
     37 H3'         1.6764   -1.7639    0.2728 H         1 ATP         0.0693
     38 HO3'        2.2232   -1.2979    2.3953 H         1 ATP         0.4124
     39 H2'        -0.0011    0.0027    0.0003 H         1 ATP         0.0854
     40 HO2'       -0.6141    0.5574    2.1082 H         1 ATP         0.4367
     41 H1'         1.7826    1.9024    1.6451 H         1 ATP         0.1343
     42 H8          0.7125    2.3429   -1.9292 H         1 ATP         0.3302
     43 HN62       -3.3217    6.4517    0.2629 H         1 ATP         0.4160
     44 H2         -1.5188    4.4223    3.7890 H         1 ATP         0.0756
     45 H45        -2.7470    5.7627    2.3665 H         1 ATP         0.4587
     46 H46        -1.0305    4.1680   -2.1054 H         1 ATP         0.5254
@<TRIPOS>BOND
     1    1    2 2
     2    1    3 1
     3    1    4 1
     4    1    8 1
     5    4   32 1
     6    5    6 2
     7    5    7 1
     8    5    8 1
     9    5   12 1
    10    7   33 1
    11    9   10 2
    12    9   11 1
    13    9   12 1
    14    9   13 1
    15   13   14 1
    16   14   15 1
    17   14   34 1
    18   14   35 1
    19   15   16 1
    20   15   17 1
    21   15   36 1
    22   16   21 1
    23   17   18 1
    24   17   19 1
    25   17   37 1
    26   18   38 1
    27   19   20 1
    28   19   21 1
    29   19   39 1
    30   20   40 1
    31   21   22 1
    32   21   41 1
    33   22   23 ar
    34   22   31 ar
    35   23   24 ar
    36   23   42 1
    37   24   25 ar
    38   24   46 1
    39   25   26 ar
    40   25   31 ar
    41   26   27 2
    42   26   28 ar
    43   27   43 1
    44   28   29 ar
    45   28   45 1
    46   29   30 ar
    47   29   44 1
    48   30   31 ar
@<TRIPOS>SUBSTRUCTURE
     1 ATP         1 GROUP 0 A     ****
@<TRIPOS>MOLECULE
[[[3,4-dihydroxy-5-(6-imino-7,8-dihydro-1~{H}-purin-8-ylium-9-yl)tetrahydrofuran-2-yl]methoxy-oxido-phosphoryl]oxy-hydroxy-phosphoryl] hydrogen phosphate
   46    48     1     0     0
SMALL
USER_CHARGES

@<TRIPOS>ATOM
      1 PG          1.7842   -5.8752    6.3213 P.3       1 ATP         1.5595
      2 O1G         0.4711   -5.2097    6.6684 O.co2     1 ATP        -0.8438
      3 O2G         2.9597   -5.0630    5.8254 O.co2     1 ATP        -0.8438
      4 O3G         2.2707   -6.7618    7.6033 O.3       1 ATP        -0.7800
      5 PB          0.9776   -7.0602    3.7439 P.3       1 ATP         1.9223
      6 O1B         1.8516   -6.3061    2.7860 O.2       1 ATP        -0.8953
      7 O2B         0.7519   -8.6199    3.3834 O.3       1 ATP        -0.8165
      8 O3B         1.4988   -7.0922    5.2737 O.3       1 ATP        -0.8247
      9 PA         -1.7207   -6.2768    2.8457 P.3       1 ATP         1.6157
     10 O1A        -2.8743   -5.5689    3.5224 O.co2     1 ATP        -0.8629
     11 O2A        -1.9358   -7.5875    2.1206 O.co2     1 ATP        -0.8629
     12 O3A        -0.5195   -6.4834    3.9322 O.3       1 ATP        -0.8191
     13 O5'        -0.9724   -5.2440    1.8220 O.3       1 ATP        -0.5644
     14 C5'        -0.7840   -3.8935    2.2172 C.3       1 ATP         0.2062
     15 C4'        -0.0724   -3.1466    1.1027 C.3       1 ATP         0.0971
     16 O4'        -0.8674   -3.1929   -0.0945 O.3       1 ATP        -0.3662
     17 C3'         0.1338   -1.6715    1.4027 C.3       1 ATP         0.0734
     18 O3'         1.2893   -1.4445    2.1808 O.3       1 ATP        -0.5671
     19 C2'         0.2158   -1.0724    0.0128 C.3       1 ATP         0.0745
     20 O2'         1.5141   -1.2448   -0.5513 O.3       1 ATP        -0.5794
     21 C1'        -0.7897   -1.9176   -0.7583 C.3       1 ATP         0.3824
     22 N9         -2.1040   -1.3333   -0.7704 N.pl3     1 ATP        -0.4324
     23 C8         -3.0590   -1.5123    0.1363 C.ar      1 ATP         0.2662
     24 N7         -4.1655   -0.8354   -0.1554 N.pl3     1 ATP        -0.4772
     25 C5         -3.8852   -0.1874   -1.3253 C.ar      1 ATP        -0.1305
     26 C6         -4.7113    0.7160   -2.1458 C.ar      1 ATP         0.7186
     27 N6         -5.9213    1.0209   -1.8021 N.2       1 ATP        -0.8115
     28 N1         -4.0411    1.1673   -3.2764 N.pl3     1 ATP        -0.8400
     29 C2         -2.7403    0.7865   -3.5638 C.ar      1 ATP         0.6671
     30 N3         -1.9921   -0.0108   -2.8519 N.2       1 ATP        -0.5806
     31 C4         -2.6302   -0.4747   -1.7239 C.ar      1 ATP         0.2748
     32 HOG3        3.1136   -7.2588    7.5342 H         1 ATP         0.4327
     33 HOB2        0.3360   -8.8534    2.5262 H         1 ATP         0.4701
     34 H5'1       -1.7618   -3.4448    2.4164 H         1 ATP         0.0401
     35 H5'2       -0.1874   -3.8744    3.1341 H         1 ATP         0.0401
     36 H4'         0.8874   -3.6466    0.8805 H         1 ATP         0.1136
     37 H3'        -0.7376   -1.2333    1.9867 H         1 ATP         0.0693
     38 HO3'        1.1626   -1.9325    3.0084 H         1 ATP         0.4124
     39 H2'        -0.0384   -0.0310    0.0096 H         1 ATP         0.0854
     40 HO2'        2.1463   -0.7958    0.0370 H         1 ATP         0.4367
     41 H1'        -0.4769   -2.1002   -1.8093 H         1 ATP         0.1343
     42 H8         -2.9569   -2.1323    1.0098 H         1 ATP         0.3302
     43 HN62       -6.3169    1.6552   -2.5012 H         1 ATP         0.4160
     44 H2         -2.3612    1.2343   -4.4957 H         1 ATP         0.0756
     45 H45        -4.5223    1.7976   -3.9117 H         1 ATP         0.4587
     46 H46        -5.0218   -0.8132    0.3804 H         1 ATP         0.5254
@<TRIPOS>BOND
     1    1    2 2
     2    1    3 1
     3    1    4 1
     4    1    8 1
     5    4   32 1
     6    5    6 2
     7    5    7 1
     8    5    8 1
     9    5   12 1
    10    7   33 1
    11    9   10 2
    12    9   11 1
    13    9   12 1
    14    9   13 1
    15   13   14 1
    16   14   15 1
    17   14   34 1
    18   14   35 1
    19   15   16 1
    20   15   17 1
    21   15   36 1
    22   16   21 1
    23   17   18 1
    24   17   19 1
    25   17   37 1
    26   18   38 1
    27   19   20 1
    28   19   21 1
    29   19   39 1
    30   20   40 1
    31   21   22 1
    32   21   41 1
    33   22   23 ar
    34   22   31 ar
    35   23   24 ar
    36   23   42 1
    37   24   25 ar
    38   24   46 1
    39   25   26 ar
    40   25   31 ar
    41   26   27 2
    42   26   28 ar
    43   27   43 1
    44   28   29 ar
    45   28   45 1
    46   29   30 ar
    47   29   44 1
    48   30   31 ar
@<TRIPOS>SUBSTRUCTURE
     1 ATP         1 GROUP 0 A     ****
@<TRIPOS>MOLECULE
[[[3,4-dihydroxy-5-(6-imino-7,8-dihydro-1~{H}-purin-8-ylium-9-yl)tetrahydrofuran-2-yl]methoxy-oxido-phosphoryl]oxy-hydroxy-phosphoryl] hydrogen phosphate
   46    48     1     0     0
SMALL
USER_CHARGES

@<TRIPOS>ATOM
      1 PG         -4.2299   -8.8692    0.1171 P.3       1 ATP         1.5595
      2 O1G        -3.6524   -8.5607   -1.2464 O.co2     1 ATP        -0.8438
      3 O2G        -5.7254   -8.8811    0.3429 O.co2     1 ATP        -0.8438
      4 O3G        -3.6169  -10.2932    0.6295 O.3       1 ATP        -0.7800
      5 PB         -3.6321   -6.2878    1.4121 P.3       1 ATP         1.9223
      6 O1B        -3.1628   -5.4730    0.2433 O.2       1 ATP        -0.8953
      7 O2B        -5.1723   -6.0476    1.8406 O.3       1 ATP        -0.8165
      8 O3B        -3.5334   -7.8897    1.2196 O.3       1 ATP        -0.8247
      9 PA         -1.2302   -6.3289    3.1239 P.3       1 ATP         1.6157
     10 O1A        -0.8645   -7.7466    2.7414 O.co2     1 ATP        -0.8629
     11 O2A        -0.9559   -5.8088    4.5182 O.co2     1 ATP        -0.8629
     12 O3A        -2.8089   -6.0834    2.7868 O.3       1 ATP        -0.8191
     13 O5'        -0.5687   -5.2869    2.0510 O.3       1 ATP        -0.5644
     14 C5'        -0.7840   -3.8935    2.2172 C.3       1 ATP         0.2062
     15 C4'        -0.0724   -3.1466    1.1027 C.3       1 ATP         0.0971
     16 O4'        -0.8674   -3.1929   -0.0945 O.3       1 ATP        -0.3662
     17 C3'         0.1338   -1.6715    1.4027 C.3       1 ATP         0.0734
     18 O3'         1.2893   -1.4445    2.1808 O.3       1 ATP        -0.5671
     19 C2'         0.2158   -1.0724    0.0128 C.3       1 ATP         0.0745
     20 O2'         1.5141   -1.2448   -0.5513 O.3       1 ATP        -0.5794
     21 C1'        -0.7897   -1.9176   -0.7583 C.3       1 ATP         0.3824
     22 N9         -2.1040   -1.3333   -0.7704 N.pl3     1 ATP        -0.4324
     23 C8         -3.0590   -1.5123    0.1363 C.ar      1 ATP         0.2662
     24 N7         -4.1655   -0.8354   -0.1554 N.pl3     1 ATP        -0.4772
     25 C5         -3.8852   -0.1874   -1.3253 C.ar      1 ATP        -0.1305
     26 C6         -4.7113    0.7160   -2.1458 C.ar      1 ATP         0.7186
     27 N6         -5.9213    1.0209   -1.8021 N.2       1 ATP        -0.8115
     28 N1         -4.0411    1.1673   -3.2764 N.pl3     1 ATP        -0.8400
     29 C2         -2.7403    0.7865   -3.5638 C.ar      1 ATP         0.6671
     30 N3         -1.9921   -0.0108   -2.8519 N.2       1 ATP        -0.5806
     31 C4         -2.6302   -0.4747   -1.7239 C.ar      1 ATP         0.2748
     32 HOG3       -3.8974  -10.6340    1.5054 H         1 ATP         0.4327
     33 HOB2       -5.8808   -6.2311    1.1874 H         1 ATP         0.4701
     34 H5'1       -1.8598   -3.6968    2.1850 H         1 ATP         0.0401
     35 H5'2       -0.3933   -3.5903    3.1931 H         1 ATP         0.0401
     36 H4'         0.8874   -3.6466    0.8805 H         1 ATP         0.1136
     37 H3'        -0.7376   -1.2333    1.9867 H         1 ATP         0.0693
     38 HO3'        1.3408   -0.4870    2.3219 H         1 ATP         0.4124
     39 H2'        -0.0384   -0.0310    0.0096 H         1 ATP         0.0854
     40 HO2'        2.1463   -0.7958    0.0370 H         1 ATP         0.4367
     41 H1'        -0.4769   -2.1002   -1.8093 H         1 ATP         0.1343
     42 H8         -2.9569   -2.1323    1.0098 H         1 ATP         0.3302
     43 HN62       -6.3169    1.6552   -2.5012 H         1 ATP         0.4160
     44 H2         -2.3612    1.2343   -4.4957 H         1 ATP         0.0756
     45 H45        -4.5223    1.7976   -3.9117 H         1 ATP         0.4587
     46 H46        -5.0218   -0.8132    0.3804 H         1 ATP         0.5254
@<TRIPOS>BOND
     1    1    2 2
     2    1    3 1
     3    1    4 1
     4    1    8 1
     5    4   32 1
     6    5    6 2
     7    5    7 1
     8    5    8 1
     9    5   12 1
    10    7   33 1
    11    9   10 2
    12    9   11 1
    13    9   12 1
    14    9   13 1
    15   13   14 1
    16   14   15 1
    17   14   34 1
    18   14   35 1
    19   15   16 1
    20   15   17 1
    21   15   36 1
    22   16   21 1
    23   17   18 1
    24   17   19 1
    25   17   37 1
    26   18   38 1
    27   19   20 1
    28   19   21 1
    29   19   39 1
    30   20   40 1
    31   21   22 1
    32   21   41 1
    33   22   23 ar
    34   22   31 ar
    35   23   24 ar
    36   23   42 1
    37   24   25 ar
    38   24   46 1
    39   25   26 ar
    40   25   31 ar
    41   26   27 2
    42   26   28 ar
    43   27   43 1
    44   28   29 ar
    45   28   45 1
    46   29   30 ar
    47   29   44 1
    48   30   31 ar
@<TRIPOS>SUBSTRUCTURE
     1 ATP         1 GROUP 0 A     ****
@<TRIPOS>MOLECULE
[[[3,4-dihydroxy-5-(6-imino-7,8-dihydro-1~{H}-purin-8-ylium-9-yl)tetrahydrofuran-2-yl]methoxy-oxido-phosphoryl]oxy-hydroxy-phosphoryl] hydrogen phosphate
   46    48     1     0     0
SMALL
USER_CHARGES

@<TRIPOS>ATOM
      1 PG         -4.5127   -1.6579    5.1268 P.3       1 ATP         1.5595
      2 O1G        -4.8085   -3.0847    4.7214 O.co2     1 ATP        -0.8438
      3 O2G        -4.4817   -0.5487    4.0991 O.co2     1 ATP        -0.8438
      4 O3G        -5.5460   -1.2326    6.3175 O.3       1 ATP        -0.7800
      5 PB         -1.6044   -1.9374    5.5282 P.3       1 ATP         1.9223
      6 O1B        -1.0700   -1.0534    4.4404 O.2       1 ATP        -0.8953
      7 O2B        -0.7742   -1.8959    6.9148 O.3       1 ATP        -0.8165
      8 O3B        -3.1246   -1.6289    5.9826 O.3       1 ATP        -0.8247
      9 PA         -0.5251   -4.5707    4.7523 P.3       1 ATP         1.6157
     10 O1A        -1.1708   -5.8915    4.3939 O.co2     1 ATP        -0.8629
     11 O2A         0.5743   -4.5036    5.7899 O.co2     1 ATP        -0.8629
     12 O3A        -1.6935   -3.5111    5.1745 O.3       1 ATP        -0.8191
     13 O5'         0.0118   -3.8395    3.3916 O.3       1 ATP        -0.5644
     14 C5'        -0.7840   -3.8935    2.2172 C.3       1 ATP         0.2062
     15 C4'        -0.0724   -3.1466    1.1027 C.3       1 ATP         0.0971
     16 O4'        -0.8674   -3.1929   -0.0945 O.3       1 ATP        -0.3662
     17 C3'         0.1338   -1.6715    1.4027 C.3       1 ATP         0.0734
     18 O3'         1.2893   -1.4445    2.1808 O.3       1 ATP        -0.5671
     19 C2'         0.2158   -1.0724    0.0128 C.3       1 ATP         0.0745
     20 O2'         1.5141   -1.2448   -0.5513 O.3       1 ATP        -0.5794
     21 C1'        -0.7897   -1.9176   -0.7583 C.3       1 ATP         0.3824
     22 N9         -2.1040   -1.3333   -0.7704 N.pl3     1 ATP        -0.4324
     23 C8         -3.0590   -1.5123    0.1363 C.ar      1 ATP         0.2662
     24 N7         -4.1655   -0.8354   -0.1554 N.pl3     1 ATP        -0.4772
     25 C5         -3.8852   -0.1874   -1.3253 C.ar      1 ATP        -0.1305
     26 C6         -4.7113    0.7160   -2.1458 C.ar      1 ATP         0.7186
     27 N6         -5.9213    1.0209   -1.8021 N.2       1 ATP        -0.8115
     28 N1         -4.0411    1.1673   -3.2764 N.pl3     1 ATP        -0.8400
     29 C2         -2.7403    0.7865   -3.5638 C.ar      1 ATP         0.6671
     30 N3         -1.9921   -0.0108   -2.8519 N.2       1 ATP        -0.5806
     31 C4         -2.6302   -0.4747   -1.7239 C.ar      1 ATP         0.2748
     32 HOG3       -5.4807   -0.3280    6.6911 H         1 ATP         0.4327
     33 HOB2        0.1717   -2.1558    6.9095 H         1 ATP         0.4701
     34 H5'1       -0.9348   -4.9415    1.9415 H         1 ATP         0.0401
     35 H5'2       -1.7548   -3.4350    2.4278 H         1 ATP         0.0401
     36 H4'         0.8874   -3.6466    0.8805 H         1 ATP         0.1136
     37 H3'        -0.7376   -1.2333    1.9867 H         1 ATP         0.0693
     38 HO3'        1.1626   -1.9325    3.0084 H         1 ATP         0.4124
     39 H2'        -0.0384   -0.0310    0.0096 H         1 ATP         0.0854
     40 HO2'        2.1463   -0.7958    0.0370 H         1 ATP         0.4367
     41 H1'        -0.4769   -2.1002   -1.8093 H         1 ATP         0.1343
     42 H8         -2.9569   -2.1323    1.0098 H         1 ATP         0.3302
     43 HN62       -6.3169    1.6552   -2.5012 H         1 ATP         0.4160
     44 H2         -2.3612    1.2343   -4.4957 H         1 ATP         0.0756
     45 H45        -4.5223    1.7976   -3.9117 H         1 ATP         0.4587
     46 H46        -5.0218   -0.8132    0.3804 H         1 ATP         0.5254
@<TRIPOS>BOND
     1    1    2 2
     2    1    3 1
     3    1    4 1
     4    1    8 1
     5    4   32 1
     6    5    6 2
     7    5    7 1
     8    5    8 1
     9    5   12 1
    10    7   33 1
    11    9   10 2
    12    9   11 1
    13    9   12 1
    14    9   13 1
    15   13   14 1
    16   14   15 1
    17   14   34 1
    18   14   35 1
    19   15   16 1
    20   15   17 1
    21   15   36 1
    22   16   21 1
    23   17   18 1
    24   17   19 1
    25   17   37 1
    26   18   38 1
    27   19   20 1
    28   19   21 1
    29   19   39 1
    30   20   40 1
    31   21   22 1
    32   21   41 1
    33   22   23 ar
    34   22   31 ar
    35   23   24 ar
    36   23   42 1
    37   24   25 ar
    38   24   46 1
    39   25   26 ar
    40   25   31 ar
    41   26   27 2
    42   26   28 ar
    43   27   43 1
    44   28   29 ar
    45   28   45 1
    46   29   30 ar
    47   29   44 1
    48   30   31 ar
@<TRIPOS>SUBSTRUCTURE
     1 ATP         1 GROUP 0 A     ****
@<TRIPOS>MOLECULE
[[[3,4-dihydroxy-5-(6-imino-7,8-dihydro-1~{H}-purin-8-ylium-9-yl)tetrahydrofuran-2-yl]methoxy-oxido-phosphoryl]oxy-hydroxy-phosphoryl] hydrogen phosphate
   46    48     1     0     0
SMALL
USER_CHARGES

@<TRIPOS>ATOM
      1 PG          4.3629   -1.1534   -8.6397 P.3       1 ATP         1.5595
      2 O1G         5.1911   -2.4181   -8.5926 O.co2     1 ATP        -0.8438
      3 O2G         4.9396    0.1330   -9.1875 O.co2     1 ATP        -0.8438
      4 O3G         2.9703   -1.4749   -9.4293 O.3       1 ATP        -0.7800
      5 PB          2.8856   -1.8264   -6.1775 P.3       1 ATP         1.9223
      6 O1B         1.5806   -2.3083   -6.7387 O.2       1 ATP        -0.8953
      7 O2B         3.9277   -2.9925   -5.7677 O.3       1 ATP        -0.8165
      8 O3B         3.7460   -0.8705   -7.1566 O.3       1 ATP        -0.8247
      9 PA          3.9552   -0.2066   -3.9564 P.3       1 ATP         1.6157
     10 O1A         4.6399    0.8510   -4.7947 O.co2     1 ATP        -0.8629
     11 O2A         4.7577   -1.2974   -3.2811 O.co2     1 ATP        -0.8629
     12 O3A         2.7844   -0.9106   -4.8506 O.3       1 ATP        -0.8191
     13 O5'         3.0213    0.5153   -2.8245 O.3       1 ATP        -0.5644
     14 C5'         2.2816   -0.2918   -1.9206 C.3       1 ATP         0.2062
     15 C4'         2.7248    0.0226   -0.4980 C.3       1 ATP         0.0971
     16 O4'         2.4697    1.4219   -0.2462 O.3       1 ATP        -0.3662
     17 C3'         1.9404   -0.7419    0.5596 C.3       1 ATP         0.0734
     18 O3'         2.7418   -0.8086    1.7389 O.3       1 ATP        -0.5671
     19 C2'         0.7477    0.1630    0.7858 C.3       1 ATP         0.0745
     20 O2'         0.1373   -0.0577    2.0407 O.3       1 ATP        -0.5794
     21 C1'         1.3733    1.5427    0.6747 C.3       1 ATP         0.3824
     22 N9          0.4520    2.5240    0.1767 N.pl3     1 ATP        -0.4324
     23 C8          0.2216    2.8192   -1.0985 C.ar      1 ATP         0.2662
     24 N7         -0.6906    3.7763   -1.2384 N.pl3     1 ATP        -0.4772
     25 C5         -1.0575    4.1037    0.0366 C.ar      1 ATP        -0.1305
     26 C6         -2.0291    5.0943    0.5330 C.ar      1 ATP         0.7186
     27 N6         -2.7093    5.8371   -0.2800 N.2       1 ATP        -0.8115
     28 N1         -2.1051    5.1136    1.9204 N.pl3     1 ATP        -0.8400
     29 C2         -1.3354    4.2774    2.7129 C.ar      1 ATP         0.6671
     30 N3         -0.4707    3.3945    2.2944 N.2       1 ATP        -0.5806
     31 C4         -0.3734    3.3525    0.9220 C.ar      1 ATP         0.2748
     32 HOG3        2.3204   -0.7492   -9.5437 H         1 ATP         0.4327
     33 HOB2        3.6624   -3.6489   -5.0888 H         1 ATP         0.4701
     34 H5'1        1.2163   -0.0770   -2.0471 H         1 ATP         0.0401
     35 H5'2        2.4655   -1.3443   -2.1563 H         1 ATP         0.0401
     36 H4'         3.8044   -0.1397   -0.4040 H         1 ATP         0.1136
     37 H3'         1.6764   -1.7639    0.2728 H         1 ATP         0.0693
     38 HO3'        2.2232   -1.2979    2.3953 H         1 ATP         0.4124
     39 H2'        -0.0011    0.0027    0.0003 H         1 ATP         0.0854
     40 HO2'       -0.6141    0.5574    2.1082 H         1 ATP         0.4367
     41 H1'         1.7826    1.9024    1.6451 H         1 ATP         0.1343
     42 H8          0.7125    2.3429   -1.9292 H         1 ATP         0.3302
     43 HN62       -3.3217    6.4517    0.2629 H         1 ATP         0.4160
     44 H2         -1.5188    4.4223    3.7890 H         1 ATP         0.0756
     45 H45        -2.7470    5.7627    2.3665 H         1 ATP         0.4587
     46 H46        -1.0305    4.1680   -2.1054 H         1 ATP         0.5254
@<TRIPOS>BOND
     1    1    2 2
     2    1    3 1
     3    1    4 1
     4    1    8 1
     5    4   32 1
     6    5    6 2
     7    5    7 1
     8    5    8 1
     9    5   12 1
    10    7   33 1
    11    9   10 2
    12    9   11 1
    13    9   12 1
    14    9   13 1
    15   13   14 1
    16   14   15 1
    17   14   34 1
    18   14   35 1
    19   15   16 1
    20   15   17 1
    21   15   36 1
    22   16   21 1
    23   17   18 1
    24   17   19 1
    25   17   37 1
    26   18   38 1
    27   19   20 1
    28   19   21 1
    29   19   39 1
    30   20   40 1
    31   21   22 1
    32   21   41 1
    33   22   23 ar
    34   22   31 ar
    35   23   24 ar
    36   23   42 1
    37   24   25 ar
    38   24   46 1
    39   25   26 ar
    40   25   31 ar
    41   26   27 2
    42   26   28 ar
    43   27   43 1
    44   28   29 ar
    45   28   45 1
    46   29   30 ar
    47   29   44 1
    48   30   31 ar
@<TRIPOS>SUBSTRUCTURE
     1 ATP         1 GROUP 0 A     ****
@<TRIPOS>MOLECULE
[[[3,4-dihydroxy-5-(6-imino-7,8-dihydro-1~{H}-purin-8-ylium-9-yl)tetrahydrofuran-2-yl]methoxy-oxido-phosphoryl]oxy-hydroxy-phosphoryl] hydrogen phosphate
   46    48     1     0     0
SMALL
USER_CHARGES

@<TRIPOS>ATOM
      1 PG          2.2777   -0.7325   -8.8878 P.3       1 ATP         1.5595
      2 O1G         2.0670   -2.2019   -9.1779 O.co2     1 ATP        -0.8438
      3 O2G         3.4543    0.0145   -9.4752 O.co2     1 ATP        -0.8438
      4 O3G         0.9095    0.0727   -9.2697 O.3       1 ATP        -0.7800
      5 PB          1.1583   -0.9348   -6.1668 P.3       1 ATP         1.9223
      6 O1B        -0.2125   -0.3596   -6.3681 O.2       1 ATP        -0.8953
      7 O2B         1.2302   -2.5498   -6.1639 O.3       1 ATP        -0.8165
      8 O3B         2.2556   -0.5045   -7.2730 O.3       1 ATP        -0.8247
      9 PA          2.3334    0.9635   -4.2388 P.3       1 ATP         1.6157
     10 O1A         1.0794    1.7628   -3.9589 O.co2     1 ATP        -0.8629
     11 O2A         3.4182    1.5161   -5.1375 O.co2     1 ATP        -0.8629
     12 O3A         1.9049   -0.5092   -4.7989 O.3       1 ATP        -0.8191
     13 O5'         3.0213    0.5153   -2.8245 O.3       1 ATP        -0.5644
     14 C5'         2.2816   -0.2918   -1.9206 C.3       1 ATP         0.2062
     15 C4'         2.7248    0.0226   -0.4980 C.3       1 ATP         0.0971
     16 O4'         2.4697    1.4219   -0.2462 O.3       1 ATP        -0.3662
     17 C3'         1.9404   -0.7419    0.5596 C.3       1 ATP         0.0734
     18 O3'         2.7418   -0.8086    1.7389 O.3       1 ATP        -0.5671
     19 C2'         0.7477    0.1630    0.7858 C.3       1 ATP         0.0745
     20 O2'         0.1373   -0.0577    2.0407 O.3       1 ATP        -0.5794
     21 C1'         1.3733    1.5427    0.6747 C.3       1 ATP         0.3824
     22 N9          0.4520    2.5240    0.1767 N.pl3     1 ATP        -0.4324
     23 C8         -0.2004    2.4829   -0.9804 C.ar      1 ATP         0.2662
     24 N7         -0.9830    3.5431   -1.1568 N.pl3     1 ATP        -0.4772
     25 C5         -0.8095    4.3012   -0.0331 C.ar      1 ATP        -0.1305
     26 C6         -1.4065    5.5904    0.3585 C.ar      1 ATP         0.7186
     27 N6         -2.2501    6.2030   -0.4084 N.2       1 ATP        -0.8115
     28 N1         -0.9585    6.0272    1.5994 N.pl3     1 ATP        -0.8400
     29 C2         -0.0508    5.3009    2.3532 C.ar      1 ATP         0.6671
     30 N3          0.4890    4.1592    2.0257 N.2       1 ATP        -0.5806
     31 C4          0.0637    3.7006    0.7995 C.ar      1 ATP         0.2748
     32 HOG3        0.8872    1.0443   -9.1369 H         1 ATP         0.4327
     33 HOB2        0.9366   -3.0393   -6.9616 H         1 ATP         0.4701
     34 H5'1        1.2163   -0.0770   -2.0471 H         1 ATP         0.0401
     35 H5'2        2.4655   -1.3443   -2.1563 H         1 ATP         0.0401
     36 H4'         3.8044   -0.1397   -0.4040 H         1 ATP         0.1136
     37 H3'         1.6764   -1.7639    0.2728 H         1 ATP         0.0693
     38 HO3'        2.2232   -1.2979    2.3953 H         1 ATP         0.4124
     39 H2'        -0.0011    0.0027    0.0003 H         1 ATP         0.0854
     40 HO2'       -0.6141    0.5574    2.1082 H         1 ATP         0.4367
     41 H1'         1.7826    1.9024    1.6451 H         1 ATP         0.1343
     42 H8         -0.1116    1.6863   -1.6984 H         1 ATP         0.3302
     43 HN62       -2.5420    7.0730    0.0447 H         1 ATP         0.4160
     44 H2          0.1969    5.7893    3.3086 H         1 ATP         0.0756
     45 H45        -1.3097    6.9080    1.9642 H         1 ATP         0.4587
     46 H46        -1.5735    3.7351   -1.9538 H         1 ATP         0.5254
@<TRIPOS>BOND
     1    1    2 2
     2    1    3 1
     3    1    4 1
     4    1    8 1
     5    4   32 1
     6    5    6 2
     7    5    7 1
     8    5    8 1
     9    5   12 1
    10    7   33 1
    11    9   10 2
    12    9   11 1
    13    9   12 1
    14    9   13 1
    15   13   14 1
    16   14   15 1
    17   14   34 1
    18   14   35 1
    19   15   16 1
    20   15   17 1
    21   15   36 1
    22   16   21 1
    23   17   18 1
    24   17   19 1
    25   17   37 1
    26   18   38 1
    27   19   20 1
    28   19   21 1
    29   19   39 1
    30   20   40 1
    31   21   22 1
    32   21   41 1
    33   22   23 ar
    34   22   31 ar
    35   23   24 ar
    36   23   42 1
    37   24   25 ar
    38   24   46 1
    39   25   26 ar
    40   25   31 ar
    41   26   27 2
    42   26   28 ar
    43   27   43 1
    44   28   29 ar
    45   28   45 1
    46   29   30 ar
    47   29   44 1
    48   30   31 ar
@<TRIPOS>SUBSTRUCTURE
     1 ATP         1 GROUP 0 A     ****
@<TRIPOS>MOLECULE
[[[3,4-dihydroxy-5-(6-imino-7,8-dihydro-1~{H}-purin-8-ylium-9-yl)tetrahydrofuran-2-yl]methoxy-oxido-phosphoryl]oxy-hydroxy-phosphoryl] hydrogen phosphate
   46    48     1     0     0
SMALL
USER_CHARGES

@<TRIPOS>ATOM
      1 PG          8.4363   -2.6696   -1.4284 P.3       1 ATP         1.5595
      2 O1G         8.3124   -4.0677   -1.9920 O.co2     1 ATP        -0.8438
      3 O2G         8.6789   -2.4456    0.0475 O.co2     1 ATP        -0.8438
      4 O3G         9.5860   -1.8717   -2.2697 O.3       1 ATP        -0.7800
      5 PB          6.5206   -1.5364   -3.3633 P.3       1 ATP         1.9223
      6 O1B         7.4453   -0.8694   -4.3380 O.2       1 ATP        -0.8953
      7 O2B         5.9829   -2.9925   -3.8151 O.3       1 ATP        -0.8165
      8 O3B         7.1397   -1.7960   -1.8928 O.3       1 ATP        -0.8247
      9 PA          3.9552   -0.2066   -3.9564 P.3       1 ATP         1.6157
     10 O1A         3.2311   -1.4130   -4.5133 O.co2     1 ATP        -0.8629
     11 O2A         4.4938    0.8658   -4.8783 O.co2     1 ATP        -0.8629
     12 O3A         5.1749   -0.7199   -2.9999 O.3       1 ATP        -0.8191
     13 O5'         3.0213    0.5153   -2.8245 O.3       1 ATP        -0.5644
     14 C5'         2.2816   -0.2918   -1.9206 C.3       1 ATP         0.2062
     15 C4'         2.7248    0.0226   -0.4980 C.3       1 ATP         0.0971
     16 O4'         2.4697    1.4219   -0.2462 O.3       1 ATP        -0.3662
     17 C3'         1.9404   -0.7419    0.5596 C.3       1 ATP         0.0734
     18 O3'         2.7418   -0.8086    1.7389 O.3       1 ATP        -0.5671
     19 C2'         0.7477    0.1630    0.7858 C.3       1 ATP         0.0745
     20 O2'         0.1373   -0.0577    2.0407 O.3       1 ATP        -0.5794
     21 C1'         1.3733    1.5427    0.6747 C.3       1 ATP         0.3824
     22 N9          0.4520    2.5240    0.1767 N.pl3     1 ATP        -0.4324
     23 C8          0.2216    2.8192   -1.0985 C.ar      1 ATP         0.2662
     24 N7         -0.6906    3.7763   -1.2384 N.pl3     1 ATP        -0.4772
     25 C5         -1.0575    4.1037    0.0366 C.ar      1 ATP        -0.1305
     26 C6         -2.0291    5.0943    0.5330 C.ar      1 ATP         0.7186
     27 N6         -2.7093    5.8371   -0.2800 N.2       1 ATP        -0.8115
     28 N1         -2.1051    5.1136    1.9204 N.pl3     1 ATP        -0.8400
     29 C2         -1.3354    4.2774    2.7129 C.ar      1 ATP         0.6671
     30 N3         -0.4707    3.3945    2.2944 N.2       1 ATP        -0.5806
     31 C4         -0.3734    3.3525    0.9220 C.ar      1 ATP         0.2748
     32 HOG3        9.7859   -0.9437   -2.0223 H         1 ATP         0.4327
     33 HOB2        5.4680   -3.0713   -4.6463 H         1 ATP         0.4701
     34 H5'1        1.2163   -0.0770   -2.0471 H         1 ATP         0.0401
     35 H5'2        2.4655   -1.3443   -2.1563 H         1 ATP         0.0401
     36 H4'         3.8044   -0.1397   -0.4040 H         1 ATP         0.1136
     37 H3'         1.6764   -1.7639    0.2728 H         1 ATP         0.0693
     38 HO3'        3.5554   -1.2733    1.4914 H         1 ATP         0.4124
     39 H2'        -0.0011    0.0027    0.0003 H         1 ATP         0.0854
     40 HO2'       -0.6141    0.5574    2.1082 H         1 ATP         0.4367
     41 H1'         1.7826    1.9024    1.6451 H         1 ATP         0.1343
     42 H8          0.7125    2.3429   -1.9292 H         1 ATP         0.3302
     43 HN62       -3.3217    6.4517    0.2629 H         1 ATP         0.4160
     44 H2         -1.5188    4.4223    3.7890 H         1 ATP         0.0756
     45 H45        -2.7470    5.7627    2.3665 H         1 ATP         0.4587
     46 H46        -1.0305    4.1680   -2.1054 H         1 ATP         0.5254
@<TRIPOS>BOND
     1    1    2 2
     2    1    3 1
     3    1    4 1
     4    1    8 1
     5    4   32 1
     6    5    6 2
     7    5    7 1
     8    5    8 1
     9    5   12 1
    10    7   33 1
    11    9   10 2
    12    9   11 1
    13    9   12 1
    14    9   13 1
    15   13   14 1
    16   14   15 1
    17   14   34 1
    18   14   35 1
    19   15   16 1
    20   15   17 1
    21   15   36 1
    22   16   21 1
    23   17   18 1
    24   17   19 1
    25   17   37 1
    26   18   38 1
    27   19   20 1
    28   19   21 1
    29   19   39 1
    30   20   40 1
    31   21   22 1
    32   21   41 1
    33   22   23 ar
    34   22   31 ar
    35   23   24 ar
    36   23   42 1
    37   24   25 ar
    38   24   46 1
    39   25   26 ar
    40   25   31 ar
    41   26   27 2
    42   26   28 ar
    43   27   43 1
    44   28   29 ar
    45   28   45 1
    46   29   30 ar
    47   29   44 1
    48   30   31 ar
@<TRIPOS>SUBSTRUCTURE
     1 ATP         1 GROUP 0 A     ****
@<TRIPOS>MOLECULE
[[[3,4-dihydroxy-5-(6-imino-7,8-dihydro-1~{H}-purin-8-ylium-9-yl)tetrahydrofuran-2-yl]methoxy-oxido-phosphoryl]oxy-hydroxy-phosphoryl] hydrogen phosphate
   46    48     1     0     0
SMALL
USER_CHARGES

@<TRIPOS>ATOM
      1 PG          6.8457   -4.8135   -2.2298 P.3       1 ATP         1.5595
      2 O1G         6.4965   -6.2488   -2.5553 O.co2     1 ATP        -0.8438
      3 O2G         7.1956   -4.4002   -0.8177 O.co2     1 ATP        -0.8438
      4 O3G         8.0497   -4.3349   -3.2235 O.3       1 ATP        -0.7800
      5 PB          5.5719   -2.2294   -2.8601 P.3       1 ATP         1.9223
      6 O1B         5.6611   -1.5261   -1.5381 O.2       1 ATP        -0.8953
      7 O2B         6.7164   -1.8275   -3.9288 O.3       1 ATP        -0.8165
      8 O3B         5.6619   -3.8418   -2.7906 O.3       1 ATP        -0.8247
      9 PA          3.4842   -0.6654   -4.2373 P.3       1 ATP         1.6157
     10 O1A         2.1276   -1.0207   -4.8060 O.co2     1 ATP        -0.8629
     11 O2A         4.4991    0.0868   -5.0704 O.co2     1 ATP        -0.8629
     12 O3A         4.1909   -2.0248   -3.6730 O.3       1 ATP        -0.8191
     13 O5'         3.2903    0.1346   -2.8241 O.3       1 ATP        -0.5644
     14 C5'         2.2816   -0.2918   -1.9206 C.3       1 ATP         0.2062
     15 C4'         2.7248    0.0226   -0.4980 C.3       1 ATP         0.0971
     16 O4'         2.4697    1.4219   -0.2462 O.3       1 ATP        -0.3662
     17 C3'         1.9404   -0.7419    0.5596 C.3       1 ATP         0.0734
     18 O3'         2.7418   -0.8086    1.7389 O.3       1 ATP        -0.5671
     19 C2'         0.7477    0.1630    0.7858 C.3       1 ATP         0.0745
     20 O2'         0.1373   -0.0577    2.0407 O.3       1 ATP        -0.5794
     21 C1'         1.3733    1.5427    0.6747 C.3       1 ATP         0.3824
     22 N9          0.4520    2.5240    0.1767 N.pl3     1 ATP        -0.4324
     23 C8          0.2216    2.8192   -1.0985 C.ar      1 ATP         0.2662
     24 N7         -0.6906    3.7763   -1.2384 N.pl3     1 ATP        -0.4772
     25 C5         -1.0575    4.1037    0.0366 C.ar      1 ATP        -0.1305
     26 C6         -2.0291    5.0943    0.5330 C.ar      1 ATP         0.7186
     27 N6         -2.7093    5.8371   -0.2800 N.2       1 ATP        -0.8115
     28 N1         -2.1051    5.1136    1.9204 N.pl3     1 ATP        -0.8400
     29 C2         -1.3354    4.2774    2.7129 C.ar      1 ATP         0.6671
     30 N3         -0.4707    3.3945    2.2944 N.2       1 ATP        -0.5806
     31 C4         -0.3734    3.3525    0.9220 C.ar      1 ATP         0.2748
     32 HOG3        8.3910   -3.4194   -3.1359 H         1 ATP         0.4327
     33 HOB2        6.7886   -0.8929   -4.2179 H         1 ATP         0.4701
     34 H5'1        1.3514    0.2330   -2.1577 H         1 ATP         0.0401
     35 H5'2        2.1280   -1.3678   -2.0460 H         1 ATP         0.0401
     36 H4'         3.8044   -0.1397   -0.4040 H         1 ATP         0.1136
     37 H3'         1.6764   -1.7639    0.2728 H         1 ATP         0.0693
     38 HO3'        3.5554   -1.2733    1.4914 H         1 ATP         0.4124
     39 H2'        -0.0011    0.0027    0.0003 H         1 ATP         0.0854
     40 HO2'       -0.1563   -0.9855    2.0596 H         1 ATP         0.4367
     41 H1'         1.7826    1.9024    1.6451 H         1 ATP         0.1343
     42 H8          0.7125    2.3429   -1.9292 H         1 ATP         0.3302
     43 HN62       -3.3217    6.4517    0.2629 H         1 ATP         0.4160
     44 H2         -1.5188    4.4223    3.7890 H         1 ATP         0.0756
     45 H45        -2.7470    5.7627    2.3665 H         1 ATP         0.4587
     46 H46        -1.0305    4.1680   -2.1054 H         1 ATP         0.5254
@<TRIPOS>BOND
     1    1    2 2
     2    1    3 1
     3    1    4 1
     4    1    8 1
     5    4   32 1
     6    5    6 2
     7    5    7 1
     8    5    8 1
     9    5   12 1
    10    7   33 1
    11    9   10 2
    12    9   11 1
    13    9   12 1
    14    9   13 1
    15   13   14 1
    16   14   15 1
    17   14   34 1
    18   14   35 1
    19   15   16 1
    20   15   17 1
    21   15   36 1
    22   16   21 1
    23   17   18 1
    24   17   19 1
    25   17   37 1
    26   18   38 1
    27   19   20 1
    28   19   21 1
    29   19   39 1
    30   20   40 1
    31   21   22 1
    32   21   41 1
    33   22   23 ar
    34   22   31 ar
    35   23   24 ar
    36   23   42 1
    37   24   25 ar
    38   24   46 1
    39   25   26 ar
    40   25   31 ar
    41   26   27 2
    42   26   28 ar
    43   27   43 1
    44   28   29 ar
    45   28   45 1
    46   29   30 ar
    47   29   44 1
    48   30   31 ar
@<TRIPOS>SUBSTRUCTURE
     1 ATP         1 GROUP 0 A     ****
@<TRIPOS>MOLECULE
[[[3,4-dihydroxy-5-(6-imino-7,8-dihydro-1~{H}-purin-8-ylium-9-yl)tetrahydrofuran-2-yl]methoxy-oxido-phosphoryl]oxy-hydroxy-phosphoryl] hydrogen phosphate
   46    48     1     0     0
SMALL
USER_CHARGES

@<TRIPOS>ATOM
      1 PG         -4.5031   -1.8919    4.7427 P.3       1 ATP         1.5595
      2 O1G        -5.6286   -2.8930    4.6053 O.co2     1 ATP        -0.8438
      3 O2G        -3.5474   -1.6355    3.5989 O.co2     1 ATP        -0.8438
      4 O3G        -5.1350   -0.4640    5.2203 O.3       1 ATP        -0.7800
      5 PB         -2.7103   -3.5159    6.4297 P.3       1 ATP         1.9223
      6 O1B        -2.0716   -3.4910    7.7869 O.2       1 ATP        -0.8953
      7 O2B        -3.6715   -4.7848    6.1479 O.3       1 ATP        -0.8165
      8 O3B        -3.6449   -2.2431    6.0844 O.3       1 ATP        -0.8247
      9 PA         -0.5251   -4.5707    4.7523 P.3       1 ATP         1.6157
     10 O1A        -1.1708   -5.8915    4.3939 O.co2     1 ATP        -0.8629
     11 O2A         0.5743   -4.5036    5.7899 O.co2     1 ATP        -0.8629
     12 O3A        -1.6935   -3.5111    5.1745 O.3       1 ATP        -0.8191
     13 O5'         0.0118   -3.8395    3.3916 O.3       1 ATP        -0.5644
     14 C5'        -0.7840   -3.8935    2.2172 C.3       1 ATP         0.2062
     15 C4'        -0.0724   -3.1466    1.1027 C.3       1 ATP         0.0971
     16 O4'        -0.8674   -3.1929   -0.0945 O.3       1 ATP        -0.3662
     17 C3'         0.1338   -1.6715    1.4027 C.3       1 ATP         0.0734
     18 O3'         1.2893   -1.4445    2.1808 O.3       1 ATP        -0.5671
     19 C2'         0.2158   -1.0724    0.0128 C.3       1 ATP         0.0745
     20 O2'         1.5141   -1.2448   -0.5513 O.3       1 ATP        -0.5794
     21 C1'        -0.7897   -1.9176   -0.7583 C.3       1 ATP         0.3824
     22 N9         -2.1040   -1.3333   -0.7704 N.pl3     1 ATP        -0.4324
     23 C8         -3.0590   -1.5123    0.1363 C.ar      1 ATP         0.2662
     24 N7         -4.1655   -0.8354   -0.1554 N.pl3     1 ATP        -0.4772
     25 C5         -3.8852   -0.1874   -1.3253 C.ar      1 ATP        -0.1305
     26 C6         -4.7113    0.7160   -2.1458 C.ar      1 ATP         0.7186
     27 N6         -5.9213    1.0209   -1.8021 N.2       1 ATP        -0.8115
     28 N1         -4.0411    1.1673   -3.2764 N.pl3     1 ATP        -0.8400
     29 C2         -2.7403    0.7865   -3.5638 C.ar      1 ATP         0.6671
     30 N3         -1.9921   -0.0108   -2.8519 N.2       1 ATP        -0.5806
     31 C4         -2.6302   -0.4747   -1.7239 C.ar      1 ATP         0.2748
     32 HOG3       -4.5269    0.2937    5.3550 H         1 ATP         0.4327
     33 HOB2       -3.2908   -5.6877    6.1926 H         1 ATP         0.4701
     34 H5'1       -0.9348   -4.9415    1.9415 H         1 ATP         0.0401
     35 H5'2       -1.7548   -3.4350    2.4278 H         1 ATP         0.0401
     36 H4'         0.8874   -3.6466    0.8805 H         1 ATP         0.1136
     37 H3'        -0.7376   -1.2333    1.9867 H         1 ATP         0.0693
     38 HO3'        1.1626   -1.9325    3.0084 H         1 ATP         0.4124
     39 H2'        -0.0384   -0.0310    0.0096 H         1 ATP         0.0854
     40 HO2'        2.1463   -0.7958    0.0370 H         1 ATP         0.4367
     41 H1'        -0.4769   -2.1002   -1.8093 H         1 ATP         0.1343
     42 H8         -2.9569   -2.1323    1.0098 H         1 ATP         0.3302
     43 HN62       -6.3169    1.6552   -2.5012 H         1 ATP         0.4160
     44 H2         -2.3612    1.2343   -4.4957 H         1 ATP         0.0756
     45 H45        -4.5223    1.7976   -3.9117 H         1 ATP         0.4587
     46 H46        -5.0218   -0.8132    0.3804 H         1 ATP         0.5254
@<TRIPOS>BOND
     1    1    2 2
     2    1    3 1
     3    1    4 1
     4    1    8 1
     5    4   32 1
     6    5    6 2
     7    5    7 1
     8    5    8 1
     9    5   12 1
    10    7   33 1
    11    9   10 2
    12    9   11 1
    13    9   12 1
    14    9   13 1
    15   13   14 1
    16   14   15 1
    17   14   34 1
    18   14   35 1
    19   15   16 1
    20   15   17 1
    21   15   36 1
    22   16   21 1
    23   17   18 1
    24   17   19 1
    25   17   37 1
    26   18   38 1
    27   19   20 1
    28   19   21 1
    29   19   39 1
    30   20   40 1
    31   21   22 1
    32   21   41 1
    33   22   23 ar
    34   22   31 ar
    35   23   24 ar
    36   23   42 1
    37   24   25 ar
    38   24   46 1
    39   25   26 ar
    40   25   31 ar
    41   26   27 2
    42   26   28 ar
    43   27   43 1
    44   28   29 ar
    45   28   45 1
    46   29   30 ar
    47   29   44 1
    48   30   31 ar
@<TRIPOS>SUBSTRUCTURE
     1 ATP         1 GROUP 0 A     ****
@<TRIPOS>MOLECULE
[[[3,4-dihydroxy-5-(6-imino-7,8-dihydro-1~{H}-purin-8-ylium-9-yl)tetrahydrofuran-2-yl]methoxy-oxido-phosphoryl]oxy-hydroxy-phosphoryl] hydrogen phosphate
   46    48     1     0     0
SMALL
USER_CHARGES

@<TRIPOS>ATOM
      1 PG         -1.0375    3.4199   -6.2725 P.3       1 ATP         1.5595
      2 O1G        -0.3101    4.0861   -7.4191 O.co2     1 ATP        -0.8438
      3 O2G        -1.8276    4.2366   -5.2744 O.co2     1 ATP        -0.8438
      4 O3G        -2.0127    2.2603   -6.8812 O.3       1 ATP        -0.7800
      5 PB          0.9862    1.2917   -6.0016 P.3       1 ATP         1.9223
      6 O1B         0.2964    0.1414   -6.6734 O.2       1 ATP        -0.8953
      7 O2B         2.0606    2.0772   -6.9194 O.3       1 ATP        -0.8165
      8 O3B         0.0098    2.4638   -5.4669 O.3       1 ATP        -0.8247
      9 PA          3.0673   -0.0858   -4.4292 P.3       1 ATP         1.6157
     10 O1A         4.2678    0.4442   -5.1827 O.co2     1 ATP        -0.8629
     11 O2A         2.5799   -1.5015   -4.6484 O.co2     1 ATP        -0.8629
     12 O3A         1.8103    0.9304   -4.6600 O.3       1 ATP        -0.8191
     13 O5'         3.2903    0.1346   -2.8241 O.3       1 ATP        -0.5644
     14 C5'         2.2816   -0.2918   -1.9206 C.3       1 ATP         0.2062
     15 C4'         2.7248    0.0226   -0.4980 C.3       1 ATP         0.0971
     16 O4'         2.4697    1.4219   -0.2462 O.3       1 ATP        -0.3662
     17 C3'         1.9404   -0.7419    0.5596 C.3       1 ATP         0.0734
     18 O3'         2.7418   -0.8086    1.7389 O.3       1 ATP        -0.5671
     19 C2'         0.7477    0.1630    0.7858 C.3       1 ATP         0.0745
     20 O2'         0.1373   -0.0577    2.0407 O.3       1 ATP        -0.5794
     21 C1'         1.3733    1.5427    0.6747 C.3       1 ATP         0.3824
     22 N9          0.4520    2.5240    0.1767 N.pl3     1 ATP        -0.4324
     23 C8          0.5691    3.2215   -0.9485 C.ar      1 ATP         0.2662
     24 N7         -0.4499    4.0551   -1.1342 N.pl3     1 ATP        -0.4772
     25 C5         -1.2618    3.8674   -0.0512 C.ar      1 ATP        -0.1305
     26 C6         -2.5420    4.5007    0.3120 C.ar      1 ATP         0.7186
     27 N6         -3.0874    5.3993   -0.4432 N.2       1 ATP        -0.8115
     28 N1         -3.0494    4.0205    1.5133 N.pl3     1 ATP        -0.8400
     29 C2         -2.3933    3.0527    2.2567 C.ar      1 ATP         0.6671
     30 N3         -1.2611    2.4796    1.9536 N.2       1 ATP        -0.5806
     31 C4         -0.7334    2.9358    0.7669 C.ar      1 ATP         0.2748
     32 HOG3       -2.5565    1.7332   -6.2578 H         1 ATP         0.4327
     33 HOB2        1.7556    2.5005   -7.7501 H         1 ATP         0.4701
     34 H5'1        1.3514    0.2330   -2.1577 H         1 ATP         0.0401
     35 H5'2        2.1280   -1.3678   -2.0460 H         1 ATP         0.0401
     36 H4'         3.8044   -0.1397   -0.4040 H         1 ATP         0.1136
     37 H3'         1.6764   -1.7639    0.2728 H         1 ATP         0.0693
     38 HO3'        3.5554   -1.2733    1.4914 H         1 ATP         0.4124
     39 H2'        -0.0011    0.0027    0.0003 H         1 ATP         0.0854
     40 HO2'       -0.1563   -0.9855    2.0596 H         1 ATP         0.4367
     41 H1'         1.7826    1.9024    1.6451 H         1 ATP         0.1343
     42 H8          1.3912    3.1285   -1.6365 H         1 ATP         0.3302
     43 HN62       -3.9637    5.7084   -0.0142 H         1 ATP         0.4160
     44 H2         -2.9317    2.7866    3.1796 H         1 ATP         0.0756
     45 H45        -3.9307    4.3923    1.8559 H         1 ATP         0.4587
     46 H46        -0.5835    4.6857   -1.9122 H         1 ATP         0.5254
@<TRIPOS>BOND
     1    1    2 2
     2    1    3 1
     3    1    4 1
     4    1    8 1
     5    4   32 1
     6    5    6 2
     7    5    7 1
     8    5    8 1
     9    5   12 1
    10    7   33 1
    11    9   10 2
    12    9   11 1
    13    9   12 1
    14    9   13 1
    15   13   14 1
    16   14   15 1
    17   14   34 1
    18   14   35 1
    19   15   16 1
    20   15   17 1
    21   15   36 1
    22   16   21 1
    23   17   18 1
    24   17   19 1
    25   17   37 1
    26   18   38 1
    27   19   20 1
    28   19   21 1
    29   19   39 1
    30   20   40 1
    31   21   22 1
    32   21   41 1
    33   22   23 ar
    34   22   31 ar
    35   23   24 ar
    36   23   42 1
    37   24   25 ar
    38   24   46 1
    39   25   26 ar
    40   25   31 ar
    41   26   27 2
    42   26   28 ar
    43   27   43 1
    44   28   29 ar
    45   28   45 1
    46   29   30 ar
    47   29   44 1
    48   30   31 ar
@<TRIPOS>SUBSTRUCTURE
     1 ATP         1 GROUP 0 A     ****
@<TRIPOS>MOLECULE
[[[3,4-dihydroxy-5-(6-imino-7,8-dihydro-1~{H}-purin-8-ylium-9-yl)tetrahydrofuran-2-yl]methoxy-oxido-phosphoryl]oxy-hydroxy-phosphoryl] hydrogen phosphate
   46    48     1     0     0
SMALL
USER_CHARGES

@<TRIPOS>ATOM
      1 PG         -2.6996   -1.3567   -3.1128 P.3       1 ATP         1.5595
      2 O1G        -2.7122   -0.7017   -1.7495 O.co2     1 ATP        -0.8438
      3 O2G        -3.9832   -1.5731   -3.8827 O.co2     1 ATP        -0.8438
      4 O3G        -1.6528   -0.5453   -4.0678 O.3       1 ATP        -0.7800
      5 PB         -0.4192   -3.1020   -2.4410 P.3       1 ATP         1.9223
      6 O1B        -0.1995   -2.7581   -0.9975 O.2       1 ATP        -0.8953
      7 O2B        -0.2038   -4.6601   -2.8147 O.3       1 ATP        -0.8165
      8 O3B        -1.8951   -2.7718   -3.0114 O.3       1 ATP        -0.8247
      9 PA          2.1371   -2.2715   -3.6563 P.3       1 ATP         1.6157
     10 O1A         2.4976   -1.2664   -4.7285 O.co2     1 ATP        -0.8629
     11 O2A         2.6455   -3.6950   -3.7283 O.co2     1 ATP        -0.8629
     12 O3A         0.5123   -2.3150   -3.5004 O.3       1 ATP        -0.8191
     13 O5'         2.5245   -1.6648   -2.1878 O.3       1 ATP        -0.5644
     14 C5'         2.2816   -0.2918   -1.9206 C.3       1 ATP         0.2062
     15 C4'         2.7248    0.0226   -0.4980 C.3       1 ATP         0.0971
     16 O4'         2.4697    1.4219   -0.2462 O.3       1 ATP        -0.3662
     17 C3'         1.9404   -0.7419    0.5596 C.3       1 ATP         0.0734
     18 O3'         2.7418   -0.8086    1.7389 O.3       1 ATP        -0.5671
     19 C2'         0.7477    0.1630    0.7858 C.3       1 ATP         0.0745
     20 O2'         0.1373   -0.0577    2.0407 O.3       1 ATP        -0.5794
     21 C1'         1.3733    1.5427    0.6747 C.3       1 ATP         0.3824
     22 N9          0.4520    2.5240    0.1767 N.pl3     1 ATP        -0.4324
     23 C8          0.5691    3.2215   -0.9485 C.ar      1 ATP         0.2662
     24 N7         -0.4499    4.0551   -1.1342 N.pl3     1 ATP        -0.4772
     25 C5         -1.2618    3.8674   -0.0512 C.ar      1 ATP        -0.1305
     26 C6         -2.5420    4.5007    0.3120 C.ar      1 ATP         0.7186
     27 N6         -3.0874    5.3993   -0.4432 N.2       1 ATP        -0.8115
     28 N1         -3.0494    4.0205    1.5133 N.pl3     1 ATP        -0.8400
     29 C2         -2.3933    3.0527    2.2567 C.ar      1 ATP         0.6671
     30 N3         -1.2611    2.4796    1.9536 N.2       1 ATP        -0.5806
     31 C4         -0.7334    2.9358    0.7669 C.ar      1 ATP         0.2748
     32 HOG3       -1.5311   -0.8509   -4.9920 H         1 ATP         0.4327
     33 HOB2       -0.7622   -5.3354   -2.3739 H         1 ATP         0.4701
     34 H5'1        2.8432    0.3119   -2.6398 H         1 ATP         0.0401
     35 H5'2        1.2128   -0.0927   -2.0428 H         1 ATP         0.0401
     36 H4'         3.8044   -0.1397   -0.4040 H         1 ATP         0.1136
     37 H3'         1.6764   -1.7639    0.2728 H         1 ATP         0.0693
     38 HO3'        2.2232   -1.2979    2.3953 H         1 ATP         0.4124
     39 H2'        -0.0011    0.0027    0.0003 H         1 ATP         0.0854
     40 HO2'       -0.1563   -0.9855    2.0596 H         1 ATP         0.4367
     41 H1'         1.7826    1.9024    1.6451 H         1 ATP         0.1343
     42 H8          1.3912    3.1285   -1.6365 H         1 ATP         0.3302
     43 HN62       -3.9637    5.7084   -0.0142 H         1 ATP         0.4160
     44 H2         -2.9317    2.7866    3.1796 H         1 ATP         0.0756
     45 H45        -3.9307    4.3923    1.8559 H         1 ATP         0.4587
     46 H46        -0.5835    4.6857   -1.9122 H         1 ATP         0.5254
@<TRIPOS>BOND
     1    1    2 2
     2    1    3 1
     3    1    4 1
     4    1    8 1
     5    4   32 1
     6    5    6 2
     7    5    7 1
     8    5    8 1
     9    5   12 1
    10    7   33 1
    11    9   10 2
    12    9   11 1
    13    9   12 1
    14    9   13 1
    15   13   14 1
    16   14   15 1
    17   14   34 1
    18   14   35 1
    19   15   16 1
    20   15   17 1
    21   15   36 1
    22   16   21 1
    23   17   18 1
    24   17   19 1
    25   17   37 1
    26   18   38 1
    27   19   20 1
    28   19   21 1
    29   19   39 1
    30   20   40 1
    31   21   22 1
    32   21   41 1
    33   22   23 ar
    34   22   31 ar
    35   23   24 ar
    36   23   42 1
    37   24   25 ar
    38   24   46 1
    39   25   26 ar
    40   25   31 ar
    41   26   27 2
    42   26   28 ar
    43   27   43 1
    44   28   29 ar
    45   28   45 1
    46   29   30 ar
    47   29   44 1
    48   30   31 ar
@<TRIPOS>SUBSTRUCTURE
     1 ATP         1 GROUP 0 A     ****
@<TRIPOS>MOLECULE
[[[3,4-dihydroxy-5-(6-imino-7,8-dihydro-1~{H}-purin-8-ylium-9-yl)tetrahydrofuran-2-yl]methoxy-oxido-phosphoryl]oxy-hydroxy-phosphoryl] hydrogen phosphate
   46    48     1     0     0
SMALL
USER_CHARGES

@<TRIPOS>ATOM
      1 PG          2.2946   -4.1435   -5.1943 P.3       1 ATP         1.5595
      2 O1G         1.4709   -4.7895   -6.2861 O.co2     1 ATP        -0.8438
      3 O2G         1.6308   -3.3941   -4.0606 O.co2     1 ATP        -0.8438
      4 O3G         3.2880   -5.2724   -4.5579 O.3       1 ATP        -0.7800
      5 PB          4.6535   -2.3736   -5.2193 P.3       1 ATP         1.9223
      6 O1B         5.6657   -3.2208   -4.5065 O.2       1 ATP        -0.8953
      7 O2B         5.2361   -1.4954   -6.4451 O.3       1 ATP        -0.8165
      8 O3B         3.4200   -3.1827   -5.8801 O.3       1 ATP        -0.8247
      9 PA          4.4373   -0.0468   -3.4192 P.3       1 ATP         1.6157
     10 O1A         5.0360    0.9823   -4.3533 O.co2     1 ATP        -0.8629
     11 O2A         5.2434   -0.6082   -2.2682 O.co2     1 ATP        -0.8629
     12 O3A         3.8709   -1.2957   -4.3054 O.3       1 ATP        -0.8191
     13 O5'         3.0213    0.5153   -2.8245 O.3       1 ATP        -0.5644
     14 C5'         2.2816   -0.2918   -1.9206 C.3       1 ATP         0.2062
     15 C4'         2.7248    0.0226   -0.4980 C.3       1 ATP         0.0971
     16 O4'         2.4697    1.4219   -0.2462 O.3       1 ATP        -0.3662
     17 C3'         1.9404   -0.7419    0.5596 C.3       1 ATP         0.0734
     18 O3'         2.7418   -0.8086    1.7389 O.3       1 ATP        -0.5671
     19 C2'         0.7477    0.1630    0.7858 C.3       1 ATP         0.0745
     20 O2'         0.1373   -0.0577    2.0407 O.3       1 ATP        -0.5794
     21 C1'         1.3733    1.5427    0.6747 C.3       1 ATP         0.3824
     22 N9          0.4520    2.5240    0.1767 N.pl3     1 ATP        -0.4324
     23 C8          0.2216    2.8192   -1.0985 C.ar      1 ATP         0.2662
     24 N7         -0.6906    3.7763   -1.2384 N.pl3     1 ATP        -0.4772
     25 C5         -1.0575    4.1037    0.0366 C.ar      1 ATP        -0.1305
     26 C6         -2.0291    5.0943    0.5330 C.ar      1 ATP         0.7186
     27 N6         -2.7093    5.8371   -0.2800 N.2       1 ATP        -0.8115
     28 N1         -2.1051    5.1136    1.9204 N.pl3     1 ATP        -0.8400
     29 C2         -1.3354    4.2774    2.7129 C.ar      1 ATP         0.6671
     30 N3         -0.4707    3.3945    2.2944 N.2       1 ATP        -0.5806
     31 C4         -0.3734    3.3525    0.9220 C.ar      1 ATP         0.2748
     32 HOG3        3.8917   -5.0069   -3.8318 H         1 ATP         0.4327
     33 HOB2        5.9391   -0.8355   -6.2641 H         1 ATP         0.4701
     34 H5'1        1.2163   -0.0770   -2.0471 H         1 ATP         0.0401
     35 H5'2        2.4655   -1.3443   -2.1563 H         1 ATP         0.0401
     36 H4'         3.8044   -0.1397   -0.4040 H         1 ATP         0.1136
     37 H3'         1.6764   -1.7639    0.2728 H         1 ATP         0.0693
     38 HO3'        2.2232   -1.2979    2.3953 H         1 ATP         0.4124
     39 H2'        -0.0011    0.0027    0.0003 H         1 ATP         0.0854
     40 HO2'       -0.6141    0.5574    2.1082 H         1 ATP         0.4367
     41 H1'         1.7826    1.9024    1.6451 H         1 ATP         0.1343
     42 H8          0.7125    2.3429   -1.9292 H         1 ATP         0.3302
     43 HN62       -3.3217    6.4517    0.2629 H         1 ATP         0.4160
     44 H2         -1.5188    4.4223    3.7890 H         1 ATP         0.0756
     45 H45        -2.7470    5.7627    2.3665 H         1 ATP         0.4587
     46 H46        -1.0305    4.1680   -2.1054 H         1 ATP         0.5254
@<TRIPOS>BOND
     1    1    2 2
     2    1    3 1
     3    1    4 1
     4    1    8 1
     5    4   32 1
     6    5    6 2
     7    5    7 1
     8    5    8 1
     9    5   12 1
    10    7   33 1
    11    9   10 2
    12    9   11 1
    13    9   12 1
    14    9   13 1
    15   13   14 1
    16   14   15 1
    17   14   34 1
    18   14   35 1
    19   15   16 1
    20   15   17 1
    21   15   36 1
    22   16   21 1
    23   17   18 1
    24   17   19 1
    25   17   37 1
    26   18   38 1
    27   19   20 1
    28   19   21 1
    29   19   39 1
    30   20   40 1
    31   21   22 1
    32   21   41 1
    33   22   23 ar
    34   22   31 ar
    35   23   24 ar
    36   23   42 1
    37   24   25 ar
    38   24   46 1
    39   25   26 ar
    40   25   31 ar
    41   26   27 2
    42   26   28 ar
    43   27   43 1
    44   28   29 ar
    45   28   45 1
    46   29   30 ar
    47   29   44 1
    48   30   31 ar
@<TRIPOS>SUBSTRUCTURE
     1 ATP         1 GROUP 0 A     ****
@<TRIPOS>MOLECULE
[[[3,4-dihydroxy-5-(6-imino-7,8-dihydro-1~{H}-purin-8-ylium-9-yl)tetrahydrofuran-2-yl]methoxy-oxido-phosphoryl]oxy-hydroxy-phosphoryl] hydrogen phosphate
   46    48     1     0     0
SMALL
USER_CHARGES

@<TRIPOS>ATOM
      1 PG          1.1075    0.5753   -8.0520 P.3       1 ATP         1.5595
      2 O1G         1.9879    1.7930   -8.2243 O.co2     1 ATP        -0.8438
      3 O2G        -0.3736    0.6387   -8.3517 O.co2     1 ATP        -0.8438
      4 O3G         1.7563   -0.6580   -8.9031 O.3       1 ATP        -0.7800
      5 PB          0.7629   -1.3788   -5.8701 P.3       1 ATP         1.9223
      6 O1B        -0.7314   -1.4983   -5.8143 O.2       1 ATP        -0.8953
      7 O2B         1.5143   -2.5540   -6.6874 O.3       1 ATP        -0.8165
      8 O3B         1.3209   -0.0225   -6.5496 O.3       1 ATP        -0.8247
      9 PA          1.5543   -2.4556   -3.2404 P.3       1 ATP         1.6157
     10 O1A         2.2585   -3.6986   -3.7394 O.co2     1 ATP        -0.8629
     11 O2A         0.1705   -2.5413   -2.6342 O.co2     1 ATP        -0.8629
     12 O3A         1.5194   -1.3517   -4.4431 O.3       1 ATP        -0.8191
     13 O5'         2.5245   -1.6648   -2.1878 O.3       1 ATP        -0.5644
     14 C5'         2.2816   -0.2918   -1.9206 C.3       1 ATP         0.2062
     15 C4'         2.7248    0.0226   -0.4980 C.3       1 ATP         0.0971
     16 O4'         2.4697    1.4219   -0.2462 O.3       1 ATP        -0.3662
     17 C3'         1.9404   -0.7419    0.5596 C.3       1 ATP         0.0734
     18 O3'         2.7418   -0.8086    1.7389 O.3       1 ATP        -0.5671
     19 C2'         0.7477    0.1630    0.7858 C.3       1 ATP         0.0745
     20 O2'         0.1373   -0.0577    2.0407 O.3       1 ATP        -0.5794
     21 C1'         1.3733    1.5427    0.6747 C.3       1 ATP         0.3824
     22 N9          0.4520    2.5240    0.1767 N.pl3     1 ATP        -0.4324
     23 C8          0.2216    2.8192   -1.0985 C.ar      1 ATP         0.2662
     24 N7         -0.6906    3.7763   -1.2384 N.pl3     1 ATP        -0.4772
     25 C5         -1.0575    4.1037    0.0366 C.ar      1 ATP        -0.1305
     26 C6         -2.0291    5.0943    0.5330 C.ar      1 ATP         0.7186
     27 N6         -2.7093    5.8371   -0.2800 N.2       1 ATP        -0.8115
     28 N1         -2.1051    5.1136    1.9204 N.pl3     1 ATP        -0.8400
     29 C2         -1.3354    4.2774    2.7129 C.ar      1 ATP         0.6671
     30 N3         -0.4707    3.3945    2.2944 N.2       1 ATP        -0.5806
     31 C4         -0.3734    3.3525    0.9220 C.ar      1 ATP         0.2748
     32 HOG3        1.2973   -1.5249   -8.8922 H         1 ATP         0.4327
     33 HOB2        1.4113   -3.4819   -6.3864 H         1 ATP         0.4701
     34 H5'1        2.8432    0.3119   -2.6398 H         1 ATP         0.0401
     35 H5'2        1.2128   -0.0927   -2.0428 H         1 ATP         0.0401
     36 H4'         3.8044   -0.1397   -0.4040 H         1 ATP         0.1136
     37 H3'         1.6764   -1.7639    0.2728 H         1 ATP         0.0693
     38 HO3'        2.2232   -1.2979    2.3953 H         1 ATP         0.4124
     39 H2'        -0.0011    0.0027    0.0003 H         1 ATP         0.0854
     40 HO2'       -0.6141    0.5574    2.1082 H         1 ATP         0.4367
     41 H1'         1.7826    1.9024    1.6451 H         1 ATP         0.1343
     42 H8          0.7125    2.3429   -1.9292 H         1 ATP         0.3302
     43 HN62       -3.3217    6.4517    0.2629 H         1 ATP         0.4160
     44 H2         -1.5188    4.4223    3.7890 H         1 ATP         0.0756
     45 H45        -2.7470    5.7627    2.3665 H         1 ATP         0.4587
     46 H46        -1.0305    4.1680   -2.1054 H         1 ATP         0.5254
@<TRIPOS>BOND
     1    1    2 2
     2    1    3 1
     3    1    4 1
     4    1    8 1
     5    4   32 1
     6    5    6 2
     7    5    7 1
     8    5    8 1
     9    5   12 1
    10    7   33 1
    11    9   10 2
    12    9   11 1
    13    9   12 1
    14    9   13 1
    15   13   14 1
    16   14   15 1
    17   14   34 1
    18   14   35 1
    19   15   16 1
    20   15   17 1
    21   15   36 1
    22   16   21 1
    23   17   18 1
    24   17   19 1
    25   17   37 1
    26   18   38 1
    27   19   20 1
    28   19   21 1
    29   19   39 1
    30   20   40 1
    31   21   22 1
    32   21   41 1
    33   22   23 ar
    34   22   31 ar
    35   23   24 ar
    36   23   42 1
    37   24   25 ar
    38   24   46 1
    39   25   26 ar
    40   25   31 ar
    41   26   27 2
    42   26   28 ar
    43   27   43 1
    44   28   29 ar
    45   28   45 1
    46   29   30 ar
    47   29   44 1
    48   30   31 ar
@<TRIPOS>SUBSTRUCTURE
     1 ATP         1 GROUP 0 A     ****
@<TRIPOS>MOLECULE
[[[3,4-dihydroxy-5-(6-imino-7,8-dihydro-1~{H}-purin-8-ylium-9-yl)tetrahydrofuran-2-yl]methoxy-oxido-phosphoryl]oxy-hydroxy-phosphoryl] hydrogen phosphate
   46    48     1     0     0
SMALL
USER_CHARGES

@<TRIPOS>ATOM
      1 PG          8.8824   -0.6845   -2.0108 P.3       1 ATP         1.5595
      2 O1G         9.3698    0.3438   -3.0071 O.co2     1 ATP        -0.8438
      3 O2G         9.5337   -2.0463   -1.9182 O.co2     1 ATP        -0.8438
      4 O3G         8.8831   -0.0074   -0.5249 O.3       1 ATP        -0.7800
      5 PB          6.4221   -1.4926   -3.4221 P.3       1 ATP         1.9223
      6 O1B         6.5891   -0.7857   -4.7347 O.2       1 ATP        -0.8953
      7 O2B         6.8356   -3.0555   -3.4280 O.3       1 ATP        -0.8165
      8 O3B         7.2731   -0.8759   -2.1940 O.3       1 ATP        -0.8247
      9 PA          3.5300   -2.0728   -3.4114 P.3       1 ATP         1.6157
     10 O1A         3.6302   -3.5801   -3.5007 O.co2     1 ATP        -0.8629
     11 O2A         3.1559   -1.2493   -4.6246 O.co2     1 ATP        -0.8629
     12 O3A         4.9288   -1.4871   -2.8061 O.3       1 ATP        -0.8191
     13 O5'         2.5245   -1.6648   -2.1878 O.3       1 ATP        -0.5644
     14 C5'         2.2816   -0.2918   -1.9206 C.3       1 ATP         0.2062
     15 C4'         2.7248    0.0226   -0.4980 C.3       1 ATP         0.0971
     16 O4'         2.4697    1.4219   -0.2462 O.3       1 ATP        -0.3662
     17 C3'         1.9404   -0.7419    0.5596 C.3       1 ATP         0.0734
     18 O3'         2.7418   -0.8086    1.7389 O.3       1 ATP        -0.5671
     19 C2'         0.7477    0.1630    0.7858 C.3       1 ATP         0.0745
     20 O2'         0.1373   -0.0577    2.0407 O.3       1 ATP        -0.5794
     21 C1'         1.3733    1.5427    0.6747 C.3       1 ATP         0.3824
     22 N9          0.4520    2.5240    0.1767 N.pl3     1 ATP        -0.4324
     23 C8          0.2216    2.8192   -1.0985 C.ar      1 ATP         0.2662
     24 N7         -0.6906    3.7763   -1.2384 N.pl3     1 ATP        -0.4772
     25 C5         -1.0575    4.1037    0.0366 C.ar      1 ATP        -0.1305
     26 C6         -2.0291    5.0943    0.5330 C.ar      1 ATP         0.7186
     27 N6         -2.7093    5.8371   -0.2800 N.2       1 ATP        -0.8115
     28 N1         -2.1051    5.1136    1.9204 N.pl3     1 ATP        -0.8400
     29 C2         -1.3354    4.2774    2.7129 C.ar      1 ATP         0.6671
     30 N3         -0.4707    3.3945    2.2944 N.2       1 ATP        -0.5806
     31 C4         -0.3734    3.3525    0.9220 C.ar      1 ATP         0.2748
     32 HOG3        8.5900   -0.5522    0.2363 H         1 ATP         0.4327
     33 HOB2        7.7569   -3.3018   -3.6579 H         1 ATP         0.4701
     34 H5'1        2.8432    0.3119   -2.6398 H         1 ATP         0.0401
     35 H5'2        1.2128   -0.0927   -2.0428 H         1 ATP         0.0401
     36 H4'         3.8044   -0.1397   -0.4040 H         1 ATP         0.1136
     37 H3'         1.6764   -1.7639    0.2728 H         1 ATP         0.0693
     38 HO3'        3.5554   -1.2733    1.4914 H         1 ATP         0.4124
     39 H2'        -0.0011    0.0027    0.0003 H         1 ATP         0.0854
     40 HO2'       -0.1563   -0.9855    2.0596 H         1 ATP         0.4367
     41 H1'         1.7826    1.9024    1.6451 H         1 ATP         0.1343
     42 H8          0.7125    2.3429   -1.9292 H         1 ATP         0.3302
     43 HN62       -3.3217    6.4517    0.2629 H         1 ATP         0.4160
     44 H2         -1.5188    4.4223    3.7890 H         1 ATP         0.0756
     45 H45        -2.7470    5.7627    2.3665 H         1 ATP         0.4587
     46 H46        -1.0305    4.1680   -2.1054 H         1 ATP         0.5254
@<TRIPOS>BOND
     1    1    2 2
     2    1    3 1
     3    1    4 1
     4    1    8 1
     5    4   32 1
     6    5    6 2
     7    5    7 1
     8    5    8 1
     9    5   12 1
    10    7   33 1
    11    9   10 2
    12    9   11 1
    13    9   12 1
    14    9   13 1
    15   13   14 1
    16   14   15 1
    17   14   34 1
    18   14   35 1
    19   15   16 1
    20   15   17 1
    21   15   36 1
    22   16   21 1
    23   17   18 1
    24   17   19 1
    25   17   37 1
    26   18   38 1
    27   19   20 1
    28   19   21 1
    29   19   39 1
    30   20   40 1
    31   21   22 1
    32   21   41 1
    33   22   23 ar
    34   22   31 ar
    35   23   24 ar
    36   23   42 1
    37   24   25 ar
    38   24   46 1
    39   25   26 ar
    40   25   31 ar
    41   26   27 2
    42   26   28 ar
    43   27   43 1
    44   28   29 ar
    45   28   45 1
    46   29   30 ar
    47   29   44 1
    48   30   31 ar
@<TRIPOS>SUBSTRUCTURE
     1 ATP         1 GROUP 0 A     ****
@<TRIPOS>MOLECULE
[[[3,4-dihydroxy-5-(6-imino-7,8-dihydro-1~{H}-purin-8-ylium-9-yl)tetrahydrofuran-2-yl]methoxy-oxido-phosphoryl]oxy-hydroxy-phosphoryl] hydrogen phosphate
   46    48     1     0     0
SMALL
USER_CHARGES

@<TRIPOS>ATOM
      1 PG          7.7236   -0.7470   -0.7889 P.3       1 ATP         1.5595
      2 O1G         8.3378   -1.5277    0.3517 O.co2     1 ATP        -0.8438
      3 O2G         6.6869    0.3230   -0.5286 O.co2     1 ATP        -0.8438
      4 O3G         8.9279   -0.0963   -1.6792 O.3       1 ATP        -0.7800
      5 PB          6.5206   -1.5364   -3.3633 P.3       1 ATP         1.9223
      6 O1B         7.4453   -0.8694   -4.3380 O.2       1 ATP        -0.8953
      7 O2B         5.9829   -2.9925   -3.8151 O.3       1 ATP        -0.8165
      8 O3B         7.1397   -1.7960   -1.8928 O.3       1 ATP        -0.8247
      9 PA          3.9552   -0.2066   -3.9564 P.3       1 ATP         1.6157
     10 O1A         3.2311   -1.4130   -4.5133 O.co2     1 ATP        -0.8629
     11 O2A         4.4938    0.8658   -4.8783 O.co2     1 ATP        -0.8629
     12 O3A         5.1749   -0.7199   -2.9999 O.3       1 ATP        -0.8191
     13 O5'         3.0213    0.5153   -2.8245 O.3       1 ATP        -0.5644
     14 C5'         2.2816   -0.2918   -1.9206 C.3       1 ATP         0.2062
     15 C4'         2.7248    0.0226   -0.4980 C.3       1 ATP         0.0971
     16 O4'         2.4697    1.4219   -0.2462 O.3       1 ATP        -0.3662
     17 C3'         1.9404   -0.7419    0.5596 C.3       1 ATP         0.0734
     18 O3'         2.7418   -0.8086    1.7389 O.3       1 ATP        -0.5671
     19 C2'         0.7477    0.1630    0.7858 C.3       1 ATP         0.0745
     20 O2'         0.1373   -0.0577    2.0407 O.3       1 ATP        -0.5794
     21 C1'         1.3733    1.5427    0.6747 C.3       1 ATP         0.3824
     22 N9          0.4520    2.5240    0.1767 N.pl3     1 ATP        -0.4324
     23 C8         -0.2004    2.4829   -0.9804 C.ar      1 ATP         0.2662
     24 N7         -0.9830    3.5431   -1.1568 N.pl3     1 ATP        -0.4772
     25 C5         -0.8095    4.3012   -0.0331 C.ar      1 ATP        -0.1305
     26 C6         -1.4065    5.5904    0.3585 C.ar      1 ATP         0.7186
     27 N6         -2.2501    6.2030   -0.4084 N.2       1 ATP        -0.8115
     28 N1         -0.9585    6.0272    1.5994 N.pl3     1 ATP        -0.8400
     29 C2         -0.0508    5.3009    2.3532 C.ar      1 ATP         0.6671
     30 N3          0.4890    4.1592    2.0257 N.2       1 ATP        -0.5806
     31 C4          0.0637    3.7006    0.7995 C.ar      1 ATP         0.2748
     32 HOG3        8.6897    0.4442   -2.4623 H         1 ATP         0.4327
     33 HOB2        5.4680   -3.0713   -4.6463 H         1 ATP         0.4701
     34 H5'1        1.2163   -0.0770   -2.0471 H         1 ATP         0.0401
     35 H5'2        2.4655   -1.3443   -2.1563 H         1 ATP         0.0401
     36 H4'         3.8044   -0.1397   -0.4040 H         1 ATP         0.1136
     37 H3'         1.6764   -1.7639    0.2728 H         1 ATP         0.0693
     38 HO3'        2.2232   -1.2979    2.3953 H         1 ATP         0.4124
     39 H2'        -0.0011    0.0027    0.0003 H         1 ATP         0.0854
     40 HO2'       -0.1563   -0.9855    2.0596 H         1 ATP         0.4367
     41 H1'         1.7826    1.9024    1.6451 H         1 ATP         0.1343
     42 H8         -0.1116    1.6863   -1.6984 H         1 ATP         0.3302
     43 HN62       -2.5420    7.0730    0.0447 H         1 ATP         0.4160
     44 H2          0.1969    5.7893    3.3086 H         1 ATP         0.0756
     45 H45        -1.3097    6.9080    1.9642 H         1 ATP         0.4587
     46 H46        -1.5735    3.7351   -1.9538 H         1 ATP         0.5254
@<TRIPOS>BOND
     1    1    2 2
     2    1    3 1
     3    1    4 1
     4    1    8 1
     5    4   32 1
     6    5    6 2
     7    5    7 1
     8    5    8 1
     9    5   12 1
    10    7   33 1
    11    9   10 2
    12    9   11 1
    13    9   12 1
    14    9   13 1
    15   13   14 1
    16   14   15 1
    17   14   34 1
    18   14   35 1
    19   15   16 1
    20   15   17 1
    21   15   36 1
    22   16   21 1
    23   17   18 1
    24   17   19 1
    25   17   37 1
    26   18   38 1
    27   19   20 1
    28   19   21 1
    29   19   39 1
    30   20   40 1
    31   21   22 1
    32   21   41 1
    33   22   23 ar
    34   22   31 ar
    35   23   24 ar
    36   23   42 1
    37   24   25 ar
    38   24   46 1
    39   25   26 ar
    40   25   31 ar
    41   26   27 2
    42   26   28 ar
    43   27   43 1
    44   28   29 ar
    45   28   45 1
    46   29   30 ar
    47   29   44 1
    48   30   31 ar
@<TRIPOS>SUBSTRUCTURE
     1 ATP         1 GROUP 0 A     ****
@<TRIPOS>MOLECULE
[[[3,4-dihydroxy-5-(6-imino-7,8-dihydro-1~{H}-purin-8-ylium-9-yl)tetrahydrofuran-2-yl]methoxy-oxido-phosphoryl]oxy-hydroxy-phosphoryl] hydrogen phosphate
   46    48     1     0     0
SMALL
USER_CHARGES

@<TRIPOS>ATOM
      1 PG          3.3029    0.4609   -6.9958 P.3       1 ATP         1.5595
      2 O1G         3.7120    0.7013   -8.4320 O.co2     1 ATP        -0.8438
      3 O2G         4.0688    1.0909   -5.8540 O.co2     1 ATP        -0.8438
      4 O3G         1.7241    0.8453   -6.8355 O.3       1 ATP        -0.7800
      5 PB          2.6587   -1.9707   -5.4564 P.3       1 ATP         1.9223
      6 O1B         1.2304   -1.7109   -5.0784 O.2       1 ATP        -0.8953
      7 O2B         3.0030   -3.5082   -5.8184 O.3       1 ATP        -0.8165
      8 O3B         3.1929   -1.1461   -6.7399 O.3       1 ATP        -0.8247
      9 PA          3.9668   -2.1113   -2.8163 P.3       1 ATP         1.6157
     10 O1A         5.0717   -1.3104   -2.1623 O.co2     1 ATP        -0.8629
     11 O2A         4.0213   -3.6232   -2.8462 O.co2     1 ATP        -0.8629
     12 O3A         3.7625   -1.5756   -4.3451 O.3       1 ATP        -0.8191
     13 O5'         2.5245   -1.6648   -2.1878 O.3       1 ATP        -0.5644
     14 C5'         2.2816   -0.2918   -1.9206 C.3       1 ATP         0.2062
     15 C4'         2.7248    0.0226   -0.4980 C.3       1 ATP         0.0971
     16 O4'         2.4697    1.4219   -0.2462 O.3       1 ATP        -0.3662
     17 C3'         1.9404   -0.7419    0.5596 C.3       1 ATP         0.0734
     18 O3'         2.7418   -0.8086    1.7389 O.3       1 ATP        -0.5671
     19 C2'         0.7477    0.1630    0.7858 C.3       1 ATP         0.0745
     20 O2'         0.1373   -0.0577    2.0407 O.3       1 ATP        -0.5794
     21 C1'         1.3733    1.5427    0.6747 C.3       1 ATP         0.3824
     22 N9          0.4520    2.5240    0.1767 N.pl3     1 ATP        -0.4324
     23 C8          0.2216    2.8192   -1.0985 C.ar      1 ATP         0.2662
     24 N7         -0.6906    3.7763   -1.2384 N.pl3     1 ATP        -0.4772
     25 C5         -1.0575    4.1037    0.0366 C.ar      1 ATP        -0.1305
     26 C6         -2.0291    5.0943    0.5330 C.ar      1 ATP         0.7186
     27 N6         -2.7093    5.8371   -0.2800 N.2       1 ATP        -0.8115
     28 N1         -2.1051    5.1136    1.9204 N.pl3     1 ATP        -0.8400
     29 C2         -1.3354    4.2774    2.7129 C.ar      1 ATP         0.6671
     30 N3         -0.4707    3.3945    2.2944 N.2       1 ATP        -0.5806
     31 C4         -0.3734    3.3525    0.9220 C.ar      1 ATP         0.2748
     32 HOG3        1.3059    0.7426   -5.9541 H         1 ATP         0.4327
     33 HOB2        2.5307   -3.9375   -6.5633 H         1 ATP         0.4701
     34 H5'1        2.8432    0.3119   -2.6398 H         1 ATP         0.0401
     35 H5'2        1.2128   -0.0927   -2.0428 H         1 ATP         0.0401
     36 H4'         3.8044   -0.1397   -0.4040 H         1 ATP         0.1136
     37 H3'         1.6764   -1.7639    0.2728 H         1 ATP         0.0693
     38 HO3'        2.2232   -1.2979    2.3953 H         1 ATP         0.4124
     39 H2'        -0.0011    0.0027    0.0003 H         1 ATP         0.0854
     40 HO2'       -0.1563   -0.9855    2.0596 H         1 ATP         0.4367
     41 H1'         1.7826    1.9024    1.6451 H         1 ATP         0.1343
     42 H8          0.7125    2.3429   -1.9292 H         1 ATP         0.3302
     43 HN62       -3.3217    6.4517    0.2629 H         1 ATP         0.4160
     44 H2         -1.5188    4.4223    3.7890 H         1 ATP         0.0756
     45 H45        -2.7470    5.7627    2.3665 H         1 ATP         0.4587
     46 H46        -1.0305    4.1680   -2.1054 H         1 ATP         0.5254
@<TRIPOS>BOND
     1    1    2 2
     2    1    3 1
     3    1    4 1
     4    1    8 1
     5    4   32 1
     6    5    6 2
     7    5    7 1
     8    5    8 1
     9    5   12 1
    10    7   33 1
    11    9   10 2
    12    9   11 1
    13    9   12 1
    14    9   13 1
    15   13   14 1
    16   14   15 1
    17   14   34 1
    18   14   35 1
    19   15   16 1
    20   15   17 1
    21   15   36 1
    22   16   21 1
    23   17   18 1
    24   17   19 1
    25   17   37 1
    26   18   38 1
    27   19   20 1
    28   19   21 1
    29   19   39 1
    30   20   40 1
    31   21   22 1
    32   21   41 1
    33   22   23 ar
    34   22   31 ar
    35   23   24 ar
    36   23   42 1
    37   24   25 ar
    38   24   46 1
    39   25   26 ar
    40   25   31 ar
    41   26   27 2
    42   26   28 ar
    43   27   43 1
    44   28   29 ar
    45   28   45 1
    46   29   30 ar
    47   29   44 1
    48   30   31 ar
@<TRIPOS>SUBSTRUCTURE
     1 ATP         1 GROUP 0 A     ****
@<TRIPOS>MOLECULE
[[[3,4-dihydroxy-5-(6-imino-7,8-dihydro-1~{H}-purin-8-ylium-9-yl)tetrahydrofuran-2-yl]methoxy-oxido-phosphoryl]oxy-hydroxy-phosphoryl] hydrogen phosphate
   46    48     1     0     0
SMALL
USER_CHARGES

@<TRIPOS>ATOM
      1 PG          7.4332   -3.9161   -3.0903 P.3       1 ATP         1.5595
      2 O1G         8.6444   -3.1298   -3.5403 O.co2     1 ATP        -0.8438
      3 O2G         7.2370   -5.3534   -3.5184 O.co2     1 ATP        -0.8438
      4 O3G         7.3440   -3.8435   -1.4615 O.3       1 ATP        -0.7800
      5 PB          5.6815   -1.5434   -3.0898 P.3       1 ATP         1.9223
      6 O1B         5.6109   -1.2292   -1.6246 O.2       1 ATP        -0.8953
      7 O2B         6.7388   -0.6556   -3.9309 O.3       1 ATP        -0.8165
      8 O3B         6.0884   -3.0659   -3.4493 O.3       1 ATP        -0.8247
      9 PA          2.8603   -2.1314   -3.7189 P.3       1 ATP         1.6157
     10 O1A         3.0799   -3.6282   -3.7534 O.co2     1 ATP        -0.8629
     11 O2A         1.8577   -1.4754   -4.6432 O.co2     1 ATP        -0.8629
     12 O3A         4.2991   -1.3837   -3.9101 O.3       1 ATP        -0.8191
     13 O5'         2.5245   -1.6648   -2.1878 O.3       1 ATP        -0.5644
     14 C5'         2.2816   -0.2918   -1.9206 C.3       1 ATP         0.2062
     15 C4'         2.7248    0.0226   -0.4980 C.3       1 ATP         0.0971
     16 O4'         2.4697    1.4219   -0.2462 O.3       1 ATP        -0.3662
     17 C3'         1.9404   -0.7419    0.5596 C.3       1 ATP         0.0734
     18 O3'         2.7418   -0.8086    1.7389 O.3       1 ATP        -0.5671
     19 C2'         0.7477    0.1630    0.7858 C.3       1 ATP         0.0745
     20 O2'         0.1373   -0.0577    2.0407 O.3       1 ATP        -0.5794
     21 C1'         1.3733    1.5427    0.6747 C.3       1 ATP         0.3824
     22 N9          0.4520    2.5240    0.1767 N.pl3     1 ATP        -0.4324
     23 C8          0.2216    2.8192   -1.0985 C.ar      1 ATP         0.2662
     24 N7         -0.6906    3.7763   -1.2384 N.pl3     1 ATP        -0.4772
     25 C5         -1.0575    4.1037    0.0366 C.ar      1 ATP        -0.1305
     26 C6         -2.0291    5.0943    0.5330 C.ar      1 ATP         0.7186
     27 N6         -2.7093    5.8371   -0.2800 N.2       1 ATP        -0.8115
     28 N1         -2.1051    5.1136    1.9204 N.pl3     1 ATP        -0.8400
     29 C2         -1.3354    4.2774    2.7129 C.ar      1 ATP         0.6671
     30 N3         -0.4707    3.3945    2.2944 N.2       1 ATP        -0.5806
     31 C4         -0.3734    3.3525    0.9220 C.ar      1 ATP         0.2748
     32 HOG3        6.6057   -4.3085   -1.0133 H         1 ATP         0.4327
     33 HOB2        7.6880   -0.6895   -3.6857 H         1 ATP         0.4701
     34 H5'1        2.8432    0.3119   -2.6398 H         1 ATP         0.0401
     35 H5'2        1.2128   -0.0927   -2.0428 H         1 ATP         0.0401
     36 H4'         3.8044   -0.1397   -0.4040 H         1 ATP         0.1136
     37 H3'         1.6764   -1.7639    0.2728 H         1 ATP         0.0693
     38 HO3'        2.2232   -1.2979    2.3953 H         1 ATP         0.4124
     39 H2'        -0.0011    0.0027    0.0003 H         1 ATP         0.0854
     40 HO2'       -0.6141    0.5574    2.1082 H         1 ATP         0.4367
     41 H1'         1.7826    1.9024    1.6451 H         1 ATP         0.1343
     42 H8          0.7125    2.3429   -1.9292 H         1 ATP         0.3302
     43 HN62       -3.3217    6.4517    0.2629 H         1 ATP         0.4160
     44 H2         -1.5188    4.4223    3.7890 H         1 ATP         0.0756
     45 H45        -2.7470    5.7627    2.3665 H         1 ATP         0.4587
     46 H46        -1.0305    4.1680   -2.1054 H         1 ATP         0.5254
@<TRIPOS>BOND
     1    1    2 2
     2    1    3 1
     3    1    4 1
     4    1    8 1
     5    4   32 1
     6    5    6 2
     7    5    7 1
     8    5    8 1
     9    5   12 1
    10    7   33 1
    11    9   10 2
    12    9   11 1
    13    9   12 1
    14    9   13 1
    15   13   14 1
    16   14   15 1
    17   14   34 1
    18   14   35 1
    19   15   16 1
    20   15   17 1
    21   15   36 1
    22   16   21 1
    23   17   18 1
    24   17   19 1
    25   17   37 1
    26   18   38 1
    27   19   20 1
    28   19   21 1
    29   19   39 1
    30   20   40 1
    31   21   22 1
    32   21   41 1
    33   22   23 ar
    34   22   31 ar
    35   23   24 ar
    36   23   42 1
    37   24   25 ar
    38   24   46 1
    39   25   26 ar
    40   25   31 ar
    41   26   27 2
    42   26   28 ar
    43   27   43 1
    44   28   29 ar
    45   28   45 1
    46   29   30 ar
    47   29   44 1
    48   30   31 ar
@<TRIPOS>SUBSTRUCTURE
     1 ATP         1 GROUP 0 A     ****
@<TRIPOS>MOLECULE
[[[3,4-dihydroxy-5-(6-imino-7,8-dihydro-1~{H}-purin-8-ylium-9-yl)tetrahydrofuran-2-yl]methoxy-oxido-phosphoryl]oxy-hydroxy-phosphoryl] hydrogen phosphate
   46    48     1     0     0
SMALL
USER_CHARGES

@<TRIPOS>ATOM
      1 PG         -2.1047   -0.3624   -3.7203 P.3       1 ATP         1.5595
      2 O1G        -1.2721   -0.3755   -2.4576 O.co2     1 ATP        -0.8438
      3 O2G        -2.5636   -1.6529   -4.3617 O.co2     1 ATP        -0.8438
      4 O3G        -3.4107    0.5853   -3.4702 O.3       1 ATP        -0.7800
      5 PB          0.0445    0.3099   -5.6247 P.3       1 ATP         1.9223
      6 O1B         0.1062   -0.9392   -6.4531 O.2       1 ATP        -0.8953
      7 O2B         0.2659    1.6865   -6.4429 O.3       1 ATP        -0.8165
      8 O3B        -1.3491    0.5496   -4.8417 O.3       1 ATP        -0.8247
      9 PA          2.7406    0.3767   -4.4296 P.3       1 ATP         1.6157
     10 O1A         3.2403    1.6170   -5.1381 O.co2     1 ATP        -0.8629
     11 O2A         3.1894   -0.9996   -4.8705 O.co2     1 ATP        -0.8629
     12 O3A         1.1081    0.4021   -4.4123 O.3       1 ATP        -0.8191
     13 O5'         3.0213    0.5153   -2.8245 O.3       1 ATP        -0.5644
     14 C5'         2.2816   -0.2918   -1.9206 C.3       1 ATP         0.2062
     15 C4'         2.7248    0.0226   -0.4980 C.3       1 ATP         0.0971
     16 O4'         2.4697    1.4219   -0.2462 O.3       1 ATP        -0.3662
     17 C3'         1.9404   -0.7419    0.5596 C.3       1 ATP         0.0734
     18 O3'         2.7418   -0.8086    1.7389 O.3       1 ATP        -0.5671
     19 C2'         0.7477    0.1630    0.7858 C.3       1 ATP         0.0745
     20 O2'         0.1373   -0.0577    2.0407 O.3       1 ATP        -0.5794
     21 C1'         1.3733    1.5427    0.6747 C.3       1 ATP         0.3824
     22 N9          0.4520    2.5240    0.1767 N.pl3     1 ATP        -0.4324
     23 C8         -0.2004    2.4829   -0.9804 C.ar      1 ATP         0.2662
     24 N7         -0.9830    3.5431   -1.1568 N.pl3     1 ATP        -0.4772
     25 C5         -0.8095    4.3012   -0.0331 C.ar      1 ATP        -0.1305
     26 C6         -1.4065    5.5904    0.3585 C.ar      1 ATP         0.7186
     27 N6         -2.2501    6.2030   -0.4084 N.2       1 ATP        -0.8115
     28 N1         -0.9585    6.0272    1.5994 N.pl3     1 ATP        -0.8400
     29 C2         -0.0508    5.3009    2.3532 C.ar      1 ATP         0.6671
     30 N3          0.4890    4.1592    2.0257 N.2       1 ATP        -0.5806
     31 C4          0.0637    3.7006    0.7995 C.ar      1 ATP         0.2748
     32 HOG3       -4.0538    0.6964   -4.2024 H         1 ATP         0.4327
     33 HOB2       -0.3541    1.9120   -7.1689 H         1 ATP         0.4701
     34 H5'1        1.2163   -0.0770   -2.0471 H         1 ATP         0.0401
     35 H5'2        2.4655   -1.3443   -2.1563 H         1 ATP         0.0401
     36 H4'         3.8044   -0.1397   -0.4040 H         1 ATP         0.1136
     37 H3'         1.6764   -1.7639    0.2728 H         1 ATP         0.0693
     38 HO3'        2.2232   -1.2979    2.3953 H         1 ATP         0.4124
     39 H2'        -0.0011    0.0027    0.0003 H         1 ATP         0.0854
     40 HO2'       -0.1563   -0.9855    2.0596 H         1 ATP         0.4367
     41 H1'         1.7826    1.9024    1.6451 H         1 ATP         0.1343
     42 H8         -0.1116    1.6863   -1.6984 H         1 ATP         0.3302
     43 HN62       -2.5420    7.0730    0.0447 H         1 ATP         0.4160
     44 H2          0.1969    5.7893    3.3086 H         1 ATP         0.0756
     45 H45        -1.3097    6.9080    1.9642 H         1 ATP         0.4587
     46 H46        -1.5735    3.7351   -1.9538 H         1 ATP         0.5254
@<TRIPOS>BOND
     1    1    2 2
     2    1    3 1
     3    1    4 1
     4    1    8 1
     5    4   32 1
     6    5    6 2
     7    5    7 1
     8    5    8 1
     9    5   12 1
    10    7   33 1
    11    9   10 2
    12    9   11 1
    13    9   12 1
    14    9   13 1
    15   13   14 1
    16   14   15 1
    17   14   34 1
    18   14   35 1
    19   15   16 1
    20   15   17 1
    21   15   36 1
    22   16   21 1
    23   17   18 1
    24   17   19 1
    25   17   37 1
    26   18   38 1
    27   19   20 1
    28   19   21 1
    29   19   39 1
    30   20   40 1
    31   21   22 1
    32   21   41 1
    33   22   23 ar
    34   22   31 ar
    35   23   24 ar
    36   23   42 1
    37   24   25 ar
    38   24   46 1
    39   25   26 ar
    40   25   31 ar
    41   26   27 2
    42   26   28 ar
    43   27   43 1
    44   28   29 ar
    45   28   45 1
    46   29   30 ar
    47   29   44 1
    48   30   31 ar
@<TRIPOS>SUBSTRUCTURE
     1 ATP         1 GROUP 0 A     ****
@<TRIPOS>MOLECULE
[[[3,4-dihydroxy-5-(6-imino-7,8-dihydro-1~{H}-purin-8-ylium-9-yl)tetrahydrofuran-2-yl]methoxy-oxido-phosphoryl]oxy-hydroxy-phosphoryl] hydrogen phosphate
   46    48     1     0     0
SMALL
USER_CHARGES

@<TRIPOS>ATOM
      1 PG          1.6355   -0.4900   -8.2461 P.3       1 ATP         1.5595
      2 O1G         0.2852    0.1899   -8.1994 O.co2     1 ATP        -0.8438
      3 O2G         1.8768   -1.6767   -9.1522 O.co2     1 ATP        -0.8438
      4 O3G         2.7738    0.6389   -8.5560 O.3       1 ATP        -0.7800
      5 PB          3.4742   -1.4806   -6.1639 P.3       1 ATP         1.9223
      6 O1B         3.8742   -2.8102   -6.7317 O.2       1 ATP        -0.8953
      7 O2B         4.5337   -0.2843   -6.4082 O.3       1 ATP        -0.8165
      8 O3B         2.0828   -0.8810   -6.7272 O.3       1 ATP        -0.8247
      9 PA          2.1371   -2.2715   -3.6563 P.3       1 ATP         1.6157
     10 O1A         2.4857   -3.7434   -3.7019 O.co2     1 ATP        -0.8629
     11 O2A         0.7457   -1.7949   -4.0121 O.co2     1 ATP        -0.8629
     12 O3A         3.2103   -1.4478   -4.5705 O.3       1 ATP        -0.8191
     13 O5'         2.5245   -1.6648   -2.1878 O.3       1 ATP        -0.5644
     14 C5'         2.2816   -0.2918   -1.9206 C.3       1 ATP         0.2062
     15 C4'         2.7248    0.0226   -0.4980 C.3       1 ATP         0.0971
     16 O4'         2.4697    1.4219   -0.2462 O.3       1 ATP        -0.3662
     17 C3'         1.9404   -0.7419    0.5596 C.3       1 ATP         0.0734
     18 O3'         2.7418   -0.8086    1.7389 O.3       1 ATP        -0.5671
     19 C2'         0.7477    0.1630    0.7858 C.3       1 ATP         0.0745
     20 O2'         0.1373   -0.0577    2.0407 O.3       1 ATP        -0.5794
     21 C1'         1.3733    1.5427    0.6747 C.3       1 ATP         0.3824
     22 N9          0.4520    2.5240    0.1767 N.pl3     1 ATP        -0.4324
     23 C8         -0.2004    2.4829   -0.9804 C.ar      1 ATP         0.2662
     24 N7         -0.9830    3.5431   -1.1568 N.pl3     1 ATP        -0.4772
     25 C5         -0.8095    4.3012   -0.0331 C.ar      1 ATP        -0.1305
     26 C6         -1.4065    5.5904    0.3585 C.ar      1 ATP         0.7186
     27 N6         -2.2501    6.2030   -0.4084 N.2       1 ATP        -0.8115
     28 N1         -0.9585    6.0272    1.5994 N.pl3     1 ATP        -0.8400
     29 C2         -0.0508    5.3009    2.3532 C.ar      1 ATP         0.6671
     30 N3          0.4890    4.1592    2.0257 N.2       1 ATP        -0.5806
     31 C4          0.0637    3.7006    0.7995 C.ar      1 ATP         0.2748
     32 HOG3        3.7100    0.3529   -8.6179 H         1 ATP         0.4327
     33 HOB2        5.4427   -0.3751   -6.0509 H         1 ATP         0.4701
     34 H5'1        2.8432    0.3119   -2.6398 H         1 ATP         0.0401
     35 H5'2        1.2128   -0.0927   -2.0428 H         1 ATP         0.0401
     36 H4'         3.8044   -0.1397   -0.4040 H         1 ATP         0.1136
     37 H3'         1.6764   -1.7639    0.2728 H         1 ATP         0.0693
     38 HO3'        2.2232   -1.2979    2.3953 H         1 ATP         0.4124
     39 H2'        -0.0011    0.0027    0.0003 H         1 ATP         0.0854
     40 HO2'       -0.1563   -0.9855    2.0596 H         1 ATP         0.4367
     41 H1'         1.7826    1.9024    1.6451 H         1 ATP         0.1343
     42 H8         -0.1116    1.6863   -1.6984 H         1 ATP         0.3302
     43 HN62       -2.5420    7.0730    0.0447 H         1 ATP         0.4160
     44 H2          0.1969    5.7893    3.3086 H         1 ATP         0.0756
     45 H45        -1.3097    6.9080    1.9642 H         1 ATP         0.4587
     46 H46        -1.5735    3.7351   -1.9538 H         1 ATP         0.5254
@<TRIPOS>BOND
     1    1    2 2
     2    1    3 1
     3    1    4 1
     4    1    8 1
     5    4   32 1
     6    5    6 2
     7    5    7 1
     8    5    8 1
     9    5   12 1
    10    7   33 1
    11    9   10 2
    12    9   11 1
    13    9   12 1
    14    9   13 1
    15   13   14 1
    16   14   15 1
    17   14   34 1
    18   14   35 1
    19   15   16 1
    20   15   17 1
    21   15   36 1
    22   16   21 1
    23   17   18 1
    24   17   19 1
    25   17   37 1
    26   18   38 1
    27   19   20 1
    28   19   21 1
    29   19   39 1
    30   20   40 1
    31   21   22 1
    32   21   41 1
    33   22   23 ar
    34   22   31 ar
    35   23   24 ar
    36   23   42 1
    37   24   25 ar
    38   24   46 1
    39   25   26 ar
    40   25   31 ar
    41   26   27 2
    42   26   28 ar
    43   27   43 1
    44   28   29 ar
    45   28   45 1
    46   29   30 ar
    47   29   44 1
    48   30   31 ar
@<TRIPOS>SUBSTRUCTURE
     1 ATP         1 GROUP 0 A     ****
@<TRIPOS>MOLECULE
[[[3,4-dihydroxy-5-(6-imino-7,8-dihydro-1~{H}-purin-8-ylium-9-yl)tetrahydrofuran-2-yl]methoxy-oxido-phosphoryl]oxy-hydroxy-phosphoryl] hydrogen phosphate
   46    48     1     0     0
SMALL
USER_CHARGES

@<TRIPOS>ATOM
      1 PG         -2.3073   -4.9528   -0.9239 P.3       1 ATP         1.5595
      2 O1G        -3.3939   -4.5837   -1.9092 O.co2     1 ATP        -0.8438
      3 O2G        -2.5193   -4.7878    0.5644 O.co2     1 ATP        -0.8438
      4 O3G        -1.8454   -6.4918   -1.2143 O.3       1 ATP        -0.7800
      5 PB         -0.1384   -4.1692   -2.7623 P.3       1 ATP         1.9223
      6 O1B         0.3206   -5.5063   -3.2642 O.2       1 ATP        -0.8953
      7 O2B        -1.1438   -3.3753   -3.7484 O.3       1 ATP        -0.8165
      8 O3B        -0.9272   -4.1962   -1.3517 O.3       1 ATP        -0.8247
      9 PA          2.1631   -2.4497   -3.4314 P.3       1 ATP         1.6157
     10 O1A         1.4759   -1.5969   -4.4756 O.co2     1 ATP        -0.8629
     11 O2A         3.1219   -3.5474   -3.8381 O.co2     1 ATP        -0.8629
     12 O3A         1.0291   -3.0970   -2.4510 O.3       1 ATP        -0.8191
     13 O5'         2.9216   -1.4836   -2.3516 O.3       1 ATP        -0.5644
     14 C5'         2.2816   -0.2918   -1.9206 C.3       1 ATP         0.2062
     15 C4'         2.7248    0.0226   -0.4980 C.3       1 ATP         0.0971
     16 O4'         2.4697    1.4219   -0.2462 O.3       1 ATP        -0.3662
     17 C3'         1.9404   -0.7419    0.5596 C.3       1 ATP         0.0734
     18 O3'         2.7418   -0.8086    1.7389 O.3       1 ATP        -0.5671
     19 C2'         0.7477    0.1630    0.7858 C.3       1 ATP         0.0745
     20 O2'         0.1373   -0.0577    2.0407 O.3       1 ATP        -0.5794
     21 C1'         1.3733    1.5427    0.6747 C.3       1 ATP         0.3824
     22 N9          0.4520    2.5240    0.1767 N.pl3     1 ATP        -0.4324
     23 C8         -0.2004    2.4829   -0.9804 C.ar      1 ATP         0.2662
     24 N7         -0.9830    3.5431   -1.1568 N.pl3     1 ATP        -0.4772
     25 C5         -0.8095    4.3012   -0.0331 C.ar      1 ATP        -0.1305
     26 C6         -1.4065    5.5904    0.3585 C.ar      1 ATP         0.7186
     27 N6         -2.2501    6.2030   -0.4084 N.2       1 ATP        -0.8115
     28 N1         -0.9585    6.0272    1.5994 N.pl3     1 ATP        -0.8400
     29 C2         -0.0508    5.3009    2.3532 C.ar      1 ATP         0.6671
     30 N3          0.4890    4.1592    2.0257 N.2       1 ATP        -0.5806
     31 C4          0.0637    3.7006    0.7995 C.ar      1 ATP         0.2748
     32 HOG3       -1.1415   -6.8816   -0.6532 H         1 ATP         0.4327
     33 HOB2       -0.8377   -3.1421   -4.6507 H         1 ATP         0.4701
     34 H5'1        2.5589    0.5217   -2.5976 H         1 ATP         0.0401
     35 H5'2        1.1982   -0.4388   -1.9617 H         1 ATP         0.0401
     36 H4'         3.8044   -0.1397   -0.4040 H         1 ATP         0.1136
     37 H3'         1.6764   -1.7639    0.2728 H         1 ATP         0.0693
     38 HO3'        2.2232   -1.2979    2.3953 H         1 ATP         0.4124
     39 H2'        -0.0011    0.0027    0.0003 H         1 ATP         0.0854
     40 HO2'       -0.6141    0.5574    2.1082 H         1 ATP         0.4367
     41 H1'         1.7826    1.9024    1.6451 H         1 ATP         0.1343
     42 H8         -0.1116    1.6863   -1.6984 H         1 ATP         0.3302
     43 HN62       -2.5420    7.0730    0.0447 H         1 ATP         0.4160
     44 H2          0.1969    5.7893    3.3086 H         1 ATP         0.0756
     45 H45        -1.3097    6.9080    1.9642 H         1 ATP         0.4587
     46 H46        -1.5735    3.7351   -1.9538 H         1 ATP         0.5254
@<TRIPOS>BOND
     1    1    2 2
     2    1    3 1
     3    1    4 1
     4    1    8 1
     5    4   32 1
     6    5    6 2
     7    5    7 1
     8    5    8 1
     9    5   12 1
    10    7   33 1
    11    9   10 2
    12    9   11 1
    13    9   12 1
    14    9   13 1
    15   13   14 1
    16   14   15 1
    17   14   34 1
    18   14   35 1
    19   15   16 1
    20   15   17 1
    21   15   36 1
    22   16   21 1
    23   17   18 1
    24   17   19 1
    25   17   37 1
    26   18   38 1
    27   19   20 1
    28   19   21 1
    29   19   39 1
    30   20   40 1
    31   21   22 1
    32   21   41 1
    33   22   23 ar
    34   22   31 ar
    35   23   24 ar
    36   23   42 1
    37   24   25 ar
    38   24   46 1
    39   25   26 ar
    40   25   31 ar
    41   26   27 2
    42   26   28 ar
    43   27   43 1
    44   28   29 ar
    45   28   45 1
    46   29   30 ar
    47   29   44 1
    48   30   31 ar
@<TRIPOS>SUBSTRUCTURE
     1 ATP         1 GROUP 0 A     ****
@<TRIPOS>MOLECULE
[[[3,4-dihydroxy-5-(6-imino-7,8-dihydro-1~{H}-purin-8-ylium-9-yl)tetrahydrofuran-2-yl]methoxy-oxido-phosphoryl]oxy-hydroxy-phosphoryl] hydrogen phosphate
   46    48     1     0     0
SMALL
USER_CHARGES

@<TRIPOS>ATOM
      1 PG          0.1661   -3.6309   -6.8334 P.3       1 ATP         1.5595
      2 O1G         0.8886   -3.8024   -8.1511 O.co2     1 ATP        -0.8438
      3 O2G        -1.3156   -3.3301   -6.7932 O.co2     1 ATP        -0.8438
      4 O3G         0.4533   -4.9464   -5.9098 O.3       1 ATP        -0.7800
      5 PB          1.1583   -0.9348   -6.1668 P.3       1 ATP         1.9223
      6 O1B         1.8591   -0.5556   -7.4378 O.2       1 ATP        -0.8953
      7 O2B        -0.3329   -0.3328   -6.0005 O.3       1 ATP        -0.8165
      8 O3B         0.9584   -2.5223   -5.9371 O.3       1 ATP        -0.8247
      9 PA          2.3334    0.9635   -4.2388 P.3       1 ATP         1.6157
     10 O1A         1.0794    1.7628   -3.9589 O.co2     1 ATP        -0.8629
     11 O2A         3.4182    1.5161   -5.1375 O.co2     1 ATP        -0.8629
     12 O3A         1.9049   -0.5092   -4.7989 O.3       1 ATP        -0.8191
     13 O5'         3.0213    0.5153   -2.8245 O.3       1 ATP        -0.5644
     14 C5'         2.2816   -0.2918   -1.9206 C.3       1 ATP         0.2062
     15 C4'         2.7248    0.0226   -0.4980 C.3       1 ATP         0.0971
     16 O4'         2.4697    1.4219   -0.2462 O.3       1 ATP        -0.3662
     17 C3'         1.9404   -0.7419    0.5596 C.3       1 ATP         0.0734
     18 O3'         2.7418   -0.8086    1.7389 O.3       1 ATP        -0.5671
     19 C2'         0.7477    0.1630    0.7858 C.3       1 ATP         0.0745
     20 O2'         0.1373   -0.0577    2.0407 O.3       1 ATP        -0.5794
     21 C1'         1.3733    1.5427    0.6747 C.3       1 ATP         0.3824
     22 N9          0.4520    2.5240    0.1767 N.pl3     1 ATP        -0.4324
     23 C8          0.5691    3.2215   -0.9485 C.ar      1 ATP         0.2662
     24 N7         -0.4499    4.0551   -1.1342 N.pl3     1 ATP        -0.4772
     25 C5         -1.2618    3.8674   -0.0512 C.ar      1 ATP        -0.1305
     26 C6         -2.5420    4.5007    0.3120 C.ar      1 ATP         0.7186
     27 N6         -3.0874    5.3993   -0.4432 N.2       1 ATP        -0.8115
     28 N1         -3.0494    4.0205    1.5133 N.pl3     1 ATP        -0.8400
     29 C2         -2.3933    3.0527    2.2567 C.ar      1 ATP         0.6671
     30 N3         -1.2611    2.4796    1.9536 N.2       1 ATP        -0.5806
     31 C4         -0.7334    2.9358    0.7669 C.ar      1 ATP         0.2748
     32 HOG3        0.0500   -4.9866   -5.0165 H         1 ATP         0.4327
     33 HOB2       -1.0148   -0.5637   -6.6669 H         1 ATP         0.4701
     34 H5'1        1.2163   -0.0770   -2.0471 H         1 ATP         0.0401
     35 H5'2        2.4655   -1.3443   -2.1563 H         1 ATP         0.0401
     36 H4'         3.8044   -0.1397   -0.4040 H         1 ATP         0.1136
     37 H3'         1.6764   -1.7639    0.2728 H         1 ATP         0.0693
     38 HO3'        2.2232   -1.2979    2.3953 H         1 ATP         0.4124
     39 H2'        -0.0011    0.0027    0.0003 H         1 ATP         0.0854
     40 HO2'       -0.1563   -0.9855    2.0596 H         1 ATP         0.4367
     41 H1'         1.7826    1.9024    1.6451 H         1 ATP         0.1343
     42 H8          1.3912    3.1285   -1.6365 H         1 ATP         0.3302
     43 HN62       -3.9637    5.7084   -0.0142 H         1 ATP         0.4160
     44 H2         -2.9317    2.7866    3.1796 H         1 ATP         0.0756
     45 H45        -3.9307    4.3923    1.8559 H         1 ATP         0.4587
     46 H46        -0.5835    4.6857   -1.9122 H         1 ATP         0.5254
@<TRIPOS>BOND
     1    1    2 2
     2    1    3 1
     3    1    4 1
     4    1    8 1
     5    4   32 1
     6    5    6 2
     7    5    7 1
     8    5    8 1
     9    5   12 1
    10    7   33 1
    11    9   10 2
    12    9   11 1
    13    9   12 1
    14    9   13 1
    15   13   14 1
    16   14   15 1
    17   14   34 1
    18   14   35 1
    19   15   16 1
    20   15   17 1
    21   15   36 1
    22   16   21 1
    23   17   18 1
    24   17   19 1
    25   17   37 1
    26   18   38 1
    27   19   20 1
    28   19   21 1
    29   19   39 1
    30   20   40 1
    31   21   22 1
    32   21   41 1
    33   22   23 ar
    34   22   31 ar
    35   23   24 ar
    36   23   42 1
    37   24   25 ar
    38   24   46 1
    39   25   26 ar
    40   25   31 ar
    41   26   27 2
    42   26   28 ar
    43   27   43 1
    44   28   29 ar
    45   28   45 1
    46   29   30 ar
    47   29   44 1
    48   30   31 ar
@<TRIPOS>SUBSTRUCTURE
     1 ATP         1 GROUP 0 A     ****
@<TRIPOS>MOLECULE
[[[3,4-dihydroxy-5-(6-imino-7,8-dihydro-1~{H}-purin-8-ylium-9-yl)tetrahydrofuran-2-yl]methoxy-oxido-phosphoryl]oxy-hydroxy-phosphoryl] hydrogen phosphate
   46    48     1     0     0
SMALL
USER_CHARGES

@<TRIPOS>ATOM
      1 PG          2.4500    2.9703   -7.4318 P.3       1 ATP         1.5595
      2 O1G         2.6166    4.2058   -6.5753 O.co2     1 ATP        -0.8438
      3 O2G         1.2950    2.8462   -8.4003 O.co2     1 ATP        -0.8438
      4 O3G         3.8408    2.7142   -8.2480 O.3       1 ATP        -0.7800
      5 PB          1.4397    1.1520   -5.3410 P.3       1 ATP         1.9223
      6 O1B         1.2260    2.1032   -4.2009 O.2       1 ATP        -0.8953
      7 O2B         0.1103    0.7823   -6.1834 O.3       1 ATP        -0.8165
      8 O3B         2.4819    1.6531   -6.4705 O.3       1 ATP        -0.8247
      9 PA          3.4842   -0.6654   -4.2373 P.3       1 ATP         1.6157
     10 O1A         4.6104   -0.0320   -5.0250 O.co2     1 ATP        -0.8629
     11 O2A         3.4853   -2.1498   -3.9435 O.co2     1 ATP        -0.8629
     12 O3A         2.0649   -0.2850   -4.9494 O.3       1 ATP        -0.8191
     13 O5'         3.2903    0.1346   -2.8241 O.3       1 ATP        -0.5644
     14 C5'         2.2816   -0.2918   -1.9206 C.3       1 ATP         0.2062
     15 C4'         2.7248    0.0226   -0.4980 C.3       1 ATP         0.0971
     16 O4'         2.4697    1.4219   -0.2462 O.3       1 ATP        -0.3662
     17 C3'         1.9404   -0.7419    0.5596 C.3       1 ATP         0.0734
     18 O3'         2.7418   -0.8086    1.7389 O.3       1 ATP        -0.5671
     19 C2'         0.7477    0.1630    0.7858 C.3       1 ATP         0.0745
     20 O2'         0.1373   -0.0577    2.0407 O.3       1 ATP        -0.5794
     21 C1'         1.3733    1.5427    0.6747 C.3       1 ATP         0.3824
     22 N9          0.4520    2.5240    0.1767 N.pl3     1 ATP        -0.4324
     23 C8         -0.2004    2.4829   -0.9804 C.ar      1 ATP         0.2662
     24 N7         -0.9830    3.5431   -1.1568 N.pl3     1 ATP        -0.4772
     25 C5         -0.8095    4.3012   -0.0331 C.ar      1 ATP        -0.1305
     26 C6         -1.4065    5.5904    0.3585 C.ar      1 ATP         0.7186
     27 N6         -2.2501    6.2030   -0.4084 N.2       1 ATP        -0.8115
     28 N1         -0.9585    6.0272    1.5994 N.pl3     1 ATP        -0.8400
     29 C2         -0.0508    5.3009    2.3532 C.ar      1 ATP         0.6671
     30 N3          0.4890    4.1592    2.0257 N.2       1 ATP        -0.5806
     31 C4          0.0637    3.7006    0.7995 C.ar      1 ATP         0.2748
     32 HOG3        3.8922    1.9431   -8.8521 H         1 ATP         0.4327
     33 HOB2       -0.3841    1.5023   -6.6299 H         1 ATP         0.4701
     34 H5'1        1.3514    0.2330   -2.1577 H         1 ATP         0.0401
     35 H5'2        2.1280   -1.3678   -2.0460 H         1 ATP         0.0401
     36 H4'         3.8044   -0.1397   -0.4040 H         1 ATP         0.1136
     37 H3'         1.6764   -1.7639    0.2728 H         1 ATP         0.0693
     38 HO3'        2.2232   -1.2979    2.3953 H         1 ATP         0.4124
     39 H2'        -0.0011    0.0027    0.0003 H         1 ATP         0.0854
     40 HO2'       -0.1563   -0.9855    2.0596 H         1 ATP         0.4367
     41 H1'         1.7826    1.9024    1.6451 H         1 ATP         0.1343
     42 H8         -0.1116    1.6863   -1.6984 H         1 ATP         0.3302
     43 HN62       -2.5420    7.0730    0.0447 H         1 ATP         0.4160
     44 H2          0.1969    5.7893    3.3086 H         1 ATP         0.0756
     45 H45        -1.3097    6.9080    1.9642 H         1 ATP         0.4587
     46 H46        -1.5735    3.7351   -1.9538 H         1 ATP         0.5254
@<TRIPOS>BOND
     1    1    2 2
     2    1    3 1
     3    1    4 1
     4    1    8 1
     5    4   32 1
     6    5    6 2
     7    5    7 1
     8    5    8 1
     9    5   12 1
    10    7   33 1
    11    9   10 2
    12    9   11 1
    13    9   12 1
    14    9   13 1
    15   13   14 1
    16   14   15 1
    17   14   34 1
    18   14   35 1
    19   15   16 1
    20   15   17 1
    21   15   36 1
    22   16   21 1
    23   17   18 1
    24   17   19 1
    25   17   37 1
    26   18   38 1
    27   19   20 1
    28   19   21 1
    29   19   39 1
    30   20   40 1
    31   21   22 1
    32   21   41 1
    33   22   23 ar
    34   22   31 ar
    35   23   24 ar
    36   23   42 1
    37   24   25 ar
    38   24   46 1
    39   25   26 ar
    40   25   31 ar
    41   26   27 2
    42   26   28 ar
    43   27   43 1
    44   28   29 ar
    45   28   45 1
    46   29   30 ar
    47   29   44 1
    48   30   31 ar
@<TRIPOS>SUBSTRUCTURE
     1 ATP         1 GROUP 0 A     ****
@<TRIPOS>MOLECULE
[[[3,4-dihydroxy-5-(6-imino-7,8-dihydro-1~{H}-purin-8-ylium-9-yl)tetrahydrofuran-2-yl]methoxy-oxido-phosphoryl]oxy-hydroxy-phosphoryl] hydrogen phosphate
   46    48     1     0     0
SMALL
USER_CHARGES

@<TRIPOS>ATOM
      1 PG          2.4803   -7.2020    5.2995 P.3       1 ATP         1.5595
      2 O1G         2.6545   -6.4014    4.0282 O.co2     1 ATP        -0.8438
      3 O2G         2.7829   -8.6835    5.3324 O.co2     1 ATP        -0.8438
      4 O3G         3.3267   -6.4735    6.4908 O.3       1 ATP        -0.7800
      5 PB         -0.4636   -7.3769    5.2769 P.3       1 ATP         1.9223
      6 O1B        -0.6703   -8.8509    5.0898 O.2       1 ATP        -0.8953
      7 O2B        -1.5193   -6.6571    6.2673 O.3       1 ATP        -0.8165
      8 O3B         0.9758   -6.9535    5.8782 O.3       1 ATP        -0.8247
      9 PA         -1.7207   -6.2768    2.8457 P.3       1 ATP         1.6157
     10 O1A        -2.8743   -5.5689    3.5224 O.co2     1 ATP        -0.8629
     11 O2A        -1.9358   -7.5875    2.1206 O.co2     1 ATP        -0.8629
     12 O3A        -0.5195   -6.4834    3.9322 O.3       1 ATP        -0.8191
     13 O5'        -0.9724   -5.2440    1.8220 O.3       1 ATP        -0.5644
     14 C5'        -0.7840   -3.8935    2.2172 C.3       1 ATP         0.2062
     15 C4'        -0.0724   -3.1466    1.1027 C.3       1 ATP         0.0971
     16 O4'        -0.8674   -3.1929   -0.0945 O.3       1 ATP        -0.3662
     17 C3'         0.1338   -1.6715    1.4027 C.3       1 ATP         0.0734
     18 O3'         1.2893   -1.4445    2.1808 O.3       1 ATP        -0.5671
     19 C2'         0.2158   -1.0724    0.0128 C.3       1 ATP         0.0745
     20 O2'         1.5141   -1.2448   -0.5513 O.3       1 ATP        -0.5794
     21 C1'        -0.7897   -1.9176   -0.7583 C.3       1 ATP         0.3824
     22 N9         -2.1040   -1.3333   -0.7704 N.pl3     1 ATP        -0.4324
     23 C8         -3.0590   -1.5123    0.1363 C.ar      1 ATP         0.2662
     24 N7         -4.1655   -0.8354   -0.1554 N.pl3     1 ATP        -0.4772
     25 C5         -3.8852   -0.1874   -1.3253 C.ar      1 ATP        -0.1305
     26 C6         -4.7113    0.7160   -2.1458 C.ar      1 ATP         0.7186
     27 N6         -5.9213    1.0209   -1.8021 N.2       1 ATP        -0.8115
     28 N1         -4.0411    1.1673   -3.2764 N.pl3     1 ATP        -0.8400
     29 C2         -2.7403    0.7865   -3.5638 C.ar      1 ATP         0.6671
     30 N3         -1.9921   -0.0108   -2.8519 N.2       1 ATP        -0.5806
     31 C4         -2.6302   -0.4747   -1.7239 C.ar      1 ATP         0.2748
     32 HOG3        3.3141   -6.8757    7.3854 H         1 ATP         0.4327
     33 HOB2       -2.4743   -6.6860    6.0450 H         1 ATP         0.4701
     34 H5'1       -1.7618   -3.4448    2.4164 H         1 ATP         0.0401
     35 H5'2       -0.1874   -3.8744    3.1341 H         1 ATP         0.0401
     36 H4'         0.8874   -3.6466    0.8805 H         1 ATP         0.1136
     37 H3'        -0.7376   -1.2333    1.9867 H         1 ATP         0.0693
     38 HO3'        1.3408   -0.4870    2.3219 H         1 ATP         0.4124
     39 H2'        -0.0384   -0.0310    0.0096 H         1 ATP         0.0854
     40 HO2'        2.1463   -0.7958    0.0370 H         1 ATP         0.4367
     41 H1'        -0.4769   -2.1002   -1.8093 H         1 ATP         0.1343
     42 H8         -2.9569   -2.1323    1.0098 H         1 ATP         0.3302
     43 HN62       -6.3169    1.6552   -2.5012 H         1 ATP         0.4160
     44 H2         -2.3612    1.2343   -4.4957 H         1 ATP         0.0756
     45 H45        -4.5223    1.7976   -3.9117 H         1 ATP         0.4587
     46 H46        -5.0218   -0.8132    0.3804 H         1 ATP         0.5254
@<TRIPOS>BOND
     1    1    2 2
     2    1    3 1
     3    1    4 1
     4    1    8 1
     5    4   32 1
     6    5    6 2
     7    5    7 1
     8    5    8 1
     9    5   12 1
    10    7   33 1
    11    9   10 2
    12    9   11 1
    13    9   12 1
    14    9   13 1
    15   13   14 1
    16   14   15 1
    17   14   34 1
    18   14   35 1
    19   15   16 1
    20   15   17 1
    21   15   36 1
    22   16   21 1
    23   17   18 1
    24   17   19 1
    25   17   37 1
    26   18   38 1
    27   19   20 1
    28   19   21 1
    29   19   39 1
    30   20   40 1
    31   21   22 1
    32   21   41 1
    33   22   23 ar
    34   22   31 ar
    35   23   24 ar
    36   23   42 1
    37   24   25 ar
    38   24   46 1
    39   25   26 ar
    40   25   31 ar
    41   26   27 2
    42   26   28 ar
    43   27   43 1
    44   28   29 ar
    45   28   45 1
    46   29   30 ar
    47   29   44 1
    48   30   31 ar
@<TRIPOS>SUBSTRUCTURE
     1 ATP         1 GROUP 0 A     ****
@<TRIPOS>MOLECULE
[[[3,4-dihydroxy-5-(6-imino-7,8-dihydro-1~{H}-purin-8-ylium-9-yl)tetrahydrofuran-2-yl]methoxy-oxido-phosphoryl]oxy-hydroxy-phosphoryl] hydrogen phosphate
   46    48     1     0     0
SMALL
USER_CHARGES

@<TRIPOS>ATOM
      1 PG          1.3578   -4.5359    6.9466 P.3       1 ATP         1.5595
      2 O1G         1.8658   -4.7354    8.3572 O.co2     1 ATP        -0.8438
      3 O2G        -0.0387   -4.0149    6.6901 O.co2     1 ATP        -0.8438
      4 O3G         2.4194   -3.5912    6.1423 O.3       1 ATP        -0.7800
      5 PB          1.3570   -6.2373    4.5376 P.3       1 ATP         1.9223
      6 O1B         2.1921   -5.4188    3.5980 O.2       1 ATP        -0.8953
      7 O2B         1.5800   -7.8354    4.4377 O.3       1 ATP        -0.8165
      8 O3B         1.5723   -5.9179    6.1075 O.3       1 ATP        -0.8247
      9 PA         -1.2302   -6.3289    3.1239 P.3       1 ATP         1.6157
     10 O1A        -2.6253   -5.8653    3.4829 O.co2     1 ATP        -0.8629
     11 O2A        -0.9875   -7.7370    2.6259 O.co2     1 ATP        -0.8629
     12 O3A        -0.2419   -6.0574    4.3950 O.3       1 ATP        -0.8191
     13 O5'        -0.5687   -5.2869    2.0510 O.3       1 ATP        -0.5644
     14 C5'        -0.7840   -3.8935    2.2172 C.3       1 ATP         0.2062
     15 C4'        -0.0724   -3.1466    1.1027 C.3       1 ATP         0.0971
     16 O4'        -0.8674   -3.1929   -0.0945 O.3       1 ATP        -0.3662
     17 C3'         0.1338   -1.6715    1.4027 C.3       1 ATP         0.0734
     18 O3'         1.2893   -1.4445    2.1808 O.3       1 ATP        -0.5671
     19 C2'         0.2158   -1.0724    0.0128 C.3       1 ATP         0.0745
     20 O2'         1.5141   -1.2448   -0.5513 O.3       1 ATP        -0.5794
     21 C1'        -0.7897   -1.9176   -0.7583 C.3       1 ATP         0.3824
     22 N9         -2.1040   -1.3333   -0.7704 N.pl3     1 ATP        -0.4324
     23 C8         -3.0590   -1.5123    0.1363 C.ar      1 ATP         0.2662
     24 N7         -4.1655   -0.8354   -0.1554 N.pl3     1 ATP        -0.4772
     25 C5         -3.8852   -0.1874   -1.3253 C.ar      1 ATP        -0.1305
     26 C6         -4.7113    0.7160   -2.1458 C.ar      1 ATP         0.7186
     27 N6         -5.9213    1.0209   -1.8021 N.2       1 ATP        -0.8115
     28 N1         -4.0411    1.1673   -3.2764 N.pl3     1 ATP        -0.8400
     29 C2         -2.7403    0.7865   -3.5638 C.ar      1 ATP         0.6671
     30 N3         -1.9921   -0.0108   -2.8519 N.2       1 ATP        -0.5806
     31 C4         -2.6302   -0.4747   -1.7239 C.ar      1 ATP         0.2748
     32 HOG3        2.2295   -3.3682    5.2061 H         1 ATP         0.4327
     33 HOB2        1.4009   -8.2871    3.5856 H         1 ATP         0.4701
     34 H5'1       -1.8598   -3.6968    2.1850 H         1 ATP         0.0401
     35 H5'2       -0.3933   -3.5903    3.1931 H         1 ATP         0.0401
     36 H4'         0.8874   -3.6466    0.8805 H         1 ATP         0.1136
     37 H3'        -0.7376   -1.2333    1.9867 H         1 ATP         0.0693
     38 HO3'        1.3408   -0.4870    2.3219 H         1 ATP         0.4124
     39 H2'        -0.0384   -0.0310    0.0096 H         1 ATP         0.0854
     40 HO2'        2.1463   -0.7958    0.0370 H         1 ATP         0.4367
     41 H1'        -0.4769   -2.1002   -1.8093 H         1 ATP         0.1343
     42 H8         -2.9569   -2.1323    1.0098 H         1 ATP         0.3302
     43 HN62       -6.3169    1.6552   -2.5012 H         1 ATP         0.4160
     44 H2         -2.3612    1.2343   -4.4957 H         1 ATP         0.0756
     45 H45        -4.5223    1.7976   -3.9117 H         1 ATP         0.4587
     46 H46        -5.0218   -0.8132    0.3804 H         1 ATP         0.5254
@<TRIPOS>BOND
     1    1    2 2
     2    1    3 1
     3    1    4 1
     4    1    8 1
     5    4   32 1
     6    5    6 2
     7    5    7 1
     8    5    8 1
     9    5   12 1
    10    7   33 1
    11    9   10 2
    12    9   11 1
    13    9   12 1
    14    9   13 1
    15   13   14 1
    16   14   15 1
    17   14   34 1
    18   14   35 1
    19   15   16 1
    20   15   17 1
    21   15   36 1
    22   16   21 1
    23   17   18 1
    24   17   19 1
    25   17   37 1
    26   18   38 1
    27   19   20 1
    28   19   21 1
    29   19   39 1
    30   20   40 1
    31   21   22 1
    32   21   41 1
    33   22   23 ar
    34   22   31 ar
    35   23   24 ar
    36   23   42 1
    37   24   25 ar
    38   24   46 1
    39   25   26 ar
    40   25   31 ar
    41   26   27 2
    42   26   28 ar
    43   27   43 1
    44   28   29 ar
    45   28   45 1
    46   29   30 ar
    47   29   44 1
    48   30   31 ar
@<TRIPOS>SUBSTRUCTURE
     1 ATP         1 GROUP 0 A     ****
@<TRIPOS>MOLECULE
[[[3,4-dihydroxy-5-(6-imino-7,8-dihydro-1~{H}-purin-8-ylium-9-yl)tetrahydrofuran-2-yl]methoxy-oxido-phosphoryl]oxy-hydroxy-phosphoryl] hydrogen phosphate
   46    48     1     0     0
SMALL
USER_CHARGES

@<TRIPOS>ATOM
      1 PG          6.4638   -4.4863   -4.2410 P.3       1 ATP         1.5595
      2 O1G         7.6714   -4.1362   -5.0817 O.co2     1 ATP        -0.8438
      3 O2G         5.6014   -5.6816   -4.5800 O.co2     1 ATP        -0.8438
      4 O3G         6.9360   -4.6128   -2.6831 O.3       1 ATP        -0.7800
      5 PB          4.6535   -2.3736   -5.2193 P.3       1 ATP         1.9223
      6 O1B         5.4485   -1.8080   -6.3587 O.2       1 ATP        -0.8953
      7 O2B         3.5068   -3.4317   -5.6423 O.3       1 ATP        -0.8165
      8 O3B         5.5146   -3.1670   -4.1049 O.3       1 ATP        -0.8247
      9 PA          4.4373   -0.0468   -3.4192 P.3       1 ATP         1.6157
     10 O1A         5.0360    0.9823   -4.3533 O.co2     1 ATP        -0.8629
     11 O2A         5.2434   -0.6082   -2.2682 O.co2     1 ATP        -0.8629
     12 O3A         3.8709   -1.2957   -4.3054 O.3       1 ATP        -0.8191
     13 O5'         3.0213    0.5153   -2.8245 O.3       1 ATP        -0.5644
     14 C5'         2.2816   -0.2918   -1.9206 C.3       1 ATP         0.2062
     15 C4'         2.7248    0.0226   -0.4980 C.3       1 ATP         0.0971
     16 O4'         2.4697    1.4219   -0.2462 O.3       1 ATP        -0.3662
     17 C3'         1.9404   -0.7419    0.5596 C.3       1 ATP         0.0734
     18 O3'         2.7418   -0.8086    1.7389 O.3       1 ATP        -0.5671
     19 C2'         0.7477    0.1630    0.7858 C.3       1 ATP         0.0745
     20 O2'         0.1373   -0.0577    2.0407 O.3       1 ATP        -0.5794
     21 C1'         1.3733    1.5427    0.6747 C.3       1 ATP         0.3824
     22 N9          0.4520    2.5240    0.1767 N.pl3     1 ATP        -0.4324
     23 C8          0.2216    2.8192   -1.0985 C.ar      1 ATP         0.2662
     24 N7         -0.6906    3.7763   -1.2384 N.pl3     1 ATP        -0.4772
     25 C5         -1.0575    4.1037    0.0366 C.ar      1 ATP        -0.1305
     26 C6         -2.0291    5.0943    0.5330 C.ar      1 ATP         0.7186
     27 N6         -2.7093    5.8371   -0.2800 N.2       1 ATP        -0.8115
     28 N1         -2.1051    5.1136    1.9204 N.pl3     1 ATP        -0.8400
     29 C2         -1.3354    4.2774    2.7129 C.ar      1 ATP         0.6671
     30 N3         -0.4707    3.3945    2.2944 N.2       1 ATP        -0.5806
     31 C4         -0.3734    3.3525    0.9220 C.ar      1 ATP         0.2748
     32 HOG3        6.2610   -4.8372   -2.0076 H         1 ATP         0.4327
     33 HOB2        2.7897   -3.1390   -6.2443 H         1 ATP         0.4701
     34 H5'1        1.2163   -0.0770   -2.0471 H         1 ATP         0.0401
     35 H5'2        2.4655   -1.3443   -2.1563 H         1 ATP         0.0401
     36 H4'         3.8044   -0.1397   -0.4040 H         1 ATP         0.1136
     37 H3'         1.6764   -1.7639    0.2728 H         1 ATP         0.0693
     38 HO3'        2.2232   -1.2979    2.3953 H         1 ATP         0.4124
     39 H2'        -0.0011    0.0027    0.0003 H         1 ATP         0.0854
     40 HO2'       -0.1563   -0.9855    2.0596 H         1 ATP         0.4367
     41 H1'         1.7826    1.9024    1.6451 H         1 ATP         0.1343
     42 H8          0.7125    2.3429   -1.9292 H         1 ATP         0.3302
     43 HN62       -3.3217    6.4517    0.2629 H         1 ATP         0.4160
     44 H2         -1.5188    4.4223    3.7890 H         1 ATP         0.0756
     45 H45        -2.7470    5.7627    2.3665 H         1 ATP         0.4587
     46 H46        -1.0305    4.1680   -2.1054 H         1 ATP         0.5254
@<TRIPOS>BOND
     1    1    2 2
     2    1    3 1
     3    1    4 1
     4    1    8 1
     5    4   32 1
     6    5    6 2
     7    5    7 1
     8    5    8 1
     9    5   12 1
    10    7   33 1
    11    9   10 2
    12    9   11 1
    13    9   12 1
    14    9   13 1
    15   13   14 1
    16   14   15 1
    17   14   34 1
    18   14   35 1
    19   15   16 1
    20   15   17 1
    21   15   36 1
    22   16   21 1
    23   17   18 1
    24   17   19 1
    25   17   37 1
    26   18   38 1
    27   19   20 1
    28   19   21 1
    29   19   39 1
    30   20   40 1
    31   21   22 1
    32   21   41 1
    33   22   23 ar
    34   22   31 ar
    35   23   24 ar
    36   23   42 1
    37   24   25 ar
    38   24   46 1
    39   25   26 ar
    40   25   31 ar
    41   26   27 2
    42   26   28 ar
    43   27   43 1
    44   28   29 ar
    45   28   45 1
    46   29   30 ar
    47   29   44 1
    48   30   31 ar
@<TRIPOS>SUBSTRUCTURE
     1 ATP         1 GROUP 0 A     ****
@<TRIPOS>MOLECULE
[[[3,4-dihydroxy-5-(6-imino-7,8-dihydro-1~{H}-purin-8-ylium-9-yl)tetrahydrofuran-2-yl]methoxy-oxido-phosphoryl]oxy-hydroxy-phosphoryl] hydrogen phosphate
   46    48     1     0     0
SMALL
USER_CHARGES

@<TRIPOS>ATOM
      1 PG          2.4076    4.4201   -7.2123 P.3       1 ATP         1.5595
      2 O1G         2.1082    5.8385   -6.7809 O.co2     1 ATP        -0.8438
      3 O2G         1.5884    3.7466   -8.2906 O.co2     1 ATP        -0.8438
      4 O3G         3.9848    4.3257   -7.6244 O.3       1 ATP        -0.7800
      5 PB          1.2557    3.0281   -4.8813 P.3       1 ATP         1.9223
      6 O1B         0.5768    4.1596   -4.1677 O.2       1 ATP        -0.8953
      7 O2B         0.2855    2.1150   -5.7970 O.3       1 ATP        -0.8165
      8 O3B         2.4397    3.4624   -5.8925 O.3       1 ATP        -0.8247
      9 PA          2.8619    0.6169   -4.3269 P.3       1 ATP         1.6157
     10 O1A         4.0991    1.0216   -5.0986 O.co2     1 ATP        -0.8629
     11 O2A         1.8962   -0.4016   -4.8925 O.co2     1 ATP        -0.8629
     12 O3A         2.0200    1.9612   -3.9394 O.3       1 ATP        -0.8191
     13 O5'         3.2903    0.1346   -2.8241 O.3       1 ATP        -0.5644
     14 C5'         2.2816   -0.2918   -1.9206 C.3       1 ATP         0.2062
     15 C4'         2.7248    0.0226   -0.4980 C.3       1 ATP         0.0971
     16 O4'         2.4697    1.4219   -0.2462 O.3       1 ATP        -0.3662
     17 C3'         1.9404   -0.7419    0.5596 C.3       1 ATP         0.0734
     18 O3'         2.7418   -0.8086    1.7389 O.3       1 ATP        -0.5671
     19 C2'         0.7477    0.1630    0.7858 C.3       1 ATP         0.0745
     20 O2'         0.1373   -0.0577    2.0407 O.3       1 ATP        -0.5794
     21 C1'         1.3733    1.5427    0.6747 C.3       1 ATP         0.3824
     22 N9          0.4520    2.5240    0.1767 N.pl3     1 ATP        -0.4324
     23 C8          0.5691    3.2215   -0.9485 C.ar      1 ATP         0.2662
     24 N7         -0.4499    4.0551   -1.1342 N.pl3     1 ATP        -0.4772
     25 C5         -1.2618    3.8674   -0.0512 C.ar      1 ATP        -0.1305
     26 C6         -2.5420    4.5007    0.3120 C.ar      1 ATP         0.7186
     27 N6         -3.0874    5.3993   -0.4432 N.2       1 ATP        -0.8115
     28 N1         -3.0494    4.0205    1.5133 N.pl3     1 ATP        -0.8400
     29 C2         -2.3933    3.0527    2.2567 C.ar      1 ATP         0.6671
     30 N3         -1.2611    2.4796    1.9536 N.2       1 ATP        -0.5806
     31 C4         -0.7334    2.9358    0.7669 C.ar      1 ATP         0.2748
     32 HOG3        4.3368    3.4622   -7.9287 H         1 ATP         0.4327
     33 HOB2       -0.4645    1.6462   -5.3727 H         1 ATP         0.4701
     34 H5'1        1.3514    0.2330   -2.1577 H         1 ATP         0.0401
     35 H5'2        2.1280   -1.3678   -2.0460 H         1 ATP         0.0401
     36 H4'         3.8044   -0.1397   -0.4040 H         1 ATP         0.1136
     37 H3'         1.6764   -1.7639    0.2728 H         1 ATP         0.0693
     38 HO3'        3.5554   -1.2733    1.4914 H         1 ATP         0.4124
     39 H2'        -0.0011    0.0027    0.0003 H         1 ATP         0.0854
     40 HO2'        0.8082    0.1199    2.7232 H         1 ATP         0.4367
     41 H1'         1.7826    1.9024    1.6451 H         1 ATP         0.1343
     42 H8          1.3912    3.1285   -1.6365 H         1 ATP         0.3302
     43 HN62       -3.9637    5.7084   -0.0142 H         1 ATP         0.4160
     44 H2         -2.9317    2.7866    3.1796 H         1 ATP         0.0756
     45 H45        -3.9307    4.3923    1.8559 H         1 ATP         0.4587
     46 H46        -0.5835    4.6857   -1.9122 H         1 ATP         0.5254
@<TRIPOS>BOND
     1    1    2 2
     2    1    3 1
     3    1    4 1
     4    1    8 1
     5    4   32 1
     6    5    6 2
     7    5    7 1
     8    5    8 1
     9    5   12 1
    10    7   33 1
    11    9   10 2
    12    9   11 1
    13    9   12 1
    14    9   13 1
    15   13   14 1
    16   14   15 1
    17   14   34 1
    18   14   35 1
    19   15   16 1
    20   15   17 1
    21   15   36 1
    22   16   21 1
    23   17   18 1
    24   17   19 1
    25   17   37 1
    26   18   38 1
    27   19   20 1
    28   19   21 1
    29   19   39 1
    30   20   40 1
    31   21   22 1
    32   21   41 1
    33   22   23 ar
    34   22   31 ar
    35   23   24 ar
    36   23   42 1
    37   24   25 ar
    38   24   46 1
    39   25   26 ar
    40   25   31 ar
    41   26   27 2
    42   26   28 ar
    43   27   43 1
    44   28   29 ar
    45   28   45 1
    46   29   30 ar
    47   29   44 1
    48   30   31 ar
@<TRIPOS>SUBSTRUCTURE
     1 ATP         1 GROUP 0 A     ****
@<TRIPOS>MOLECULE
[[[3,4-dihydroxy-5-(6-imino-7,8-dihydro-1~{H}-purin-8-ylium-9-yl)tetrahydrofuran-2-yl]methoxy-oxido-phosphoryl]oxy-hydroxy-phosphoryl] hydrogen phosphate
   46    48     1     0     0
SMALL
USER_CHARGES

@<TRIPOS>ATOM
      1 PG         -1.5467   -0.6953   -5.4630 P.3       1 ATP         1.5595
      2 O1G        -2.1757   -0.1280   -4.2099 O.co2     1 ATP        -0.8438
      3 O2G        -2.3034   -0.7136   -6.7724 O.co2     1 ATP        -0.8438
      4 O3G        -0.1118    0.0457   -5.7037 O.3       1 ATP        -0.7800
      5 PB         -0.0162   -2.7318   -3.9770 P.3       1 ATP         1.9223
      6 O1B        -0.5046   -2.5047   -2.5770 O.2       1 ATP        -0.8953
      7 O2B         0.2414   -4.2786   -4.3705 O.3       1 ATP        -0.8165
      8 O3B        -0.9982   -2.1980   -5.1447 O.3       1 ATP        -0.8247
      9 PA          2.8603   -2.1314   -3.7189 P.3       1 ATP         1.6157
     10 O1A         3.7693   -1.1113   -4.3692 O.co2     1 ATP        -0.8629
     11 O2A         3.2353   -3.5972   -3.6945 O.co2     1 ATP        -0.8629
     12 O3A         1.3676   -1.9951   -4.3666 O.3       1 ATP        -0.8191
     13 O5'         2.5245   -1.6648   -2.1878 O.3       1 ATP        -0.5644
     14 C5'         2.2816   -0.2918   -1.9206 C.3       1 ATP         0.2062
     15 C4'         2.7248    0.0226   -0.4980 C.3       1 ATP         0.0971
     16 O4'         2.4697    1.4219   -0.2462 O.3       1 ATP        -0.3662
     17 C3'         1.9404   -0.7419    0.5596 C.3       1 ATP         0.0734
     18 O3'         2.7418   -0.8086    1.7389 O.3       1 ATP        -0.5671
     19 C2'         0.7477    0.1630    0.7858 C.3       1 ATP         0.0745
     20 O2'         0.1373   -0.0577    2.0407 O.3       1 ATP        -0.5794
     21 C1'         1.3733    1.5427    0.6747 C.3       1 ATP         0.3824
     22 N9          0.4520    2.5240    0.1767 N.pl3     1 ATP        -0.4324
     23 C8         -0.2004    2.4829   -0.9804 C.ar      1 ATP         0.2662
     24 N7         -0.9830    3.5431   -1.1568 N.pl3     1 ATP        -0.4772
     25 C5         -0.8095    4.3012   -0.0331 C.ar      1 ATP        -0.1305
     26 C6         -1.4065    5.5904    0.3585 C.ar      1 ATP         0.7186
     27 N6         -2.2501    6.2030   -0.4084 N.2       1 ATP        -0.8115
     28 N1         -0.9585    6.0272    1.5994 N.pl3     1 ATP        -0.8400
     29 C2         -0.0508    5.3009    2.3532 C.ar      1 ATP         0.6671
     30 N3          0.4890    4.1592    2.0257 N.2       1 ATP        -0.5806
     31 C4          0.0637    3.7006    0.7995 C.ar      1 ATP         0.2748
     32 HOG3        0.4230   -0.2149   -6.4837 H         1 ATP         0.4327
     33 HOB2        0.8976   -4.7960   -3.8567 H         1 ATP         0.4701
     34 H5'1        2.8432    0.3119   -2.6398 H         1 ATP         0.0401
     35 H5'2        1.2128   -0.0927   -2.0428 H         1 ATP         0.0401
     36 H4'         3.8044   -0.1397   -0.4040 H         1 ATP         0.1136
     37 H3'         1.6764   -1.7639    0.2728 H         1 ATP         0.0693
     38 HO3'        2.2232   -1.2979    2.3953 H         1 ATP         0.4124
     39 H2'        -0.0011    0.0027    0.0003 H         1 ATP         0.0854
     40 HO2'       -0.6141    0.5574    2.1082 H         1 ATP         0.4367
     41 H1'         1.7826    1.9024    1.6451 H         1 ATP         0.1343
     42 H8         -0.1116    1.6863   -1.6984 H         1 ATP         0.3302
     43 HN62       -2.5420    7.0730    0.0447 H         1 ATP         0.4160
     44 H2          0.1969    5.7893    3.3086 H         1 ATP         0.0756
     45 H45        -1.3097    6.9080    1.9642 H         1 ATP         0.4587
     46 H46        -1.5735    3.7351   -1.9538 H         1 ATP         0.5254
@<TRIPOS>BOND
     1    1    2 2
     2    1    3 1
     3    1    4 1
     4    1    8 1
     5    4   32 1
     6    5    6 2
     7    5    7 1
     8    5    8 1
     9    5   12 1
    10    7   33 1
    11    9   10 2
    12    9   11 1
    13    9   12 1
    14    9   13 1
    15   13   14 1
    16   14   15 1
    17   14   34 1
    18   14   35 1
    19   15   16 1
    20   15   17 1
    21   15   36 1
    22   16   21 1
    23   17   18 1
    24   17   19 1
    25   17   37 1
    26   18   38 1
    27   19   20 1
    28   19   21 1
    29   19   39 1
    30   20   40 1
    31   21   22 1
    32   21   41 1
    33   22   23 ar
    34   22   31 ar
    35   23   24 ar
    36   23   42 1
    37   24   25 ar
    38   24   46 1
    39   25   26 ar
    40   25   31 ar
    41   26   27 2
    42   26   28 ar
    43   27   43 1
    44   28   29 ar
    45   28   45 1
    46   29   30 ar
    47   29   44 1
    48   30   31 ar
@<TRIPOS>SUBSTRUCTURE
     1 ATP         1 GROUP 0 A     ****
@<TRIPOS>MOLECULE
[[[3,4-dihydroxy-5-(6-imino-7,8-dihydro-1~{H}-purin-8-ylium-9-yl)tetrahydrofuran-2-yl]methoxy-oxido-phosphoryl]oxy-hydroxy-phosphoryl] hydrogen phosphate
   46    48     1     0     0
SMALL
USER_CHARGES

@<TRIPOS>ATOM
      1 PG         -0.1016   -2.0829   -5.7605 P.3       1 ATP         1.5595
      2 O1G        -1.1748   -1.6988   -6.7548 O.co2     1 ATP        -0.8438
      3 O2G        -0.1080   -1.5233   -4.3555 O.co2     1 ATP        -0.8438
      4 O3G        -0.0385   -3.7120   -5.6695 O.3       1 ATP        -0.7800
      5 PB          2.8428   -2.1789   -5.8992 P.3       1 ATP         1.9223
      6 O1B         3.1015   -3.6389   -5.6716 O.2       1 ATP        -0.8953
      7 O2B         3.8205   -1.4690   -6.9733 O.3       1 ATP        -0.8165
      8 O3B         1.3605   -1.8165   -6.4324 O.3       1 ATP        -0.8247
      9 PA          2.7406    0.3767   -4.4296 P.3       1 ATP         1.6157
     10 O1A         1.2942    0.7140   -4.7197 O.co2     1 ATP        -0.8629
     11 O2A         3.8609    1.0770   -5.1673 O.co2     1 ATP        -0.8629
     12 O3A         2.9483   -1.2346   -4.5928 O.3       1 ATP        -0.8191
     13 O5'         3.0213    0.5153   -2.8245 O.3       1 ATP        -0.5644
     14 C5'         2.2816   -0.2918   -1.9206 C.3       1 ATP         0.2062
     15 C4'         2.7248    0.0226   -0.4980 C.3       1 ATP         0.0971
     16 O4'         2.4697    1.4219   -0.2462 O.3       1 ATP        -0.3662
     17 C3'         1.9404   -0.7419    0.5596 C.3       1 ATP         0.0734
     18 O3'         2.7418   -0.8086    1.7389 O.3       1 ATP        -0.5671
     19 C2'         0.7477    0.1630    0.7858 C.3       1 ATP         0.0745
     20 O2'         0.1373   -0.0577    2.0407 O.3       1 ATP        -0.5794
     21 C1'         1.3733    1.5427    0.6747 C.3       1 ATP         0.3824
     22 N9          0.4520    2.5240    0.1767 N.pl3     1 ATP        -0.4324
     23 C8          0.2216    2.8192   -1.0985 C.ar      1 ATP         0.2662
     24 N7         -0.6906    3.7763   -1.2384 N.pl3     1 ATP        -0.4772
     25 C5         -1.0575    4.1037    0.0366 C.ar      1 ATP        -0.1305
     26 C6         -2.0291    5.0943    0.5330 C.ar      1 ATP         0.7186
     27 N6         -2.7093    5.8371   -0.2800 N.2       1 ATP        -0.8115
     28 N1         -2.1051    5.1136    1.9204 N.pl3     1 ATP        -0.8400
     29 C2         -1.3354    4.2774    2.7129 C.ar      1 ATP         0.6671
     30 N3         -0.4707    3.3945    2.2944 N.2       1 ATP        -0.5806
     31 C4         -0.3734    3.3525    0.9220 C.ar      1 ATP         0.2748
     32 HOG3        0.6139   -4.1205   -5.0615 H         1 ATP         0.4327
     33 HOB2        4.7869   -1.4643   -6.8048 H         1 ATP         0.4701
     34 H5'1        1.2163   -0.0770   -2.0471 H         1 ATP         0.0401
     35 H5'2        2.4655   -1.3443   -2.1563 H         1 ATP         0.0401
     36 H4'         3.8044   -0.1397   -0.4040 H         1 ATP         0.1136
     37 H3'         1.6764   -1.7639    0.2728 H         1 ATP         0.0693
     38 HO3'        2.2232   -1.2979    2.3953 H         1 ATP         0.4124
     39 H2'        -0.0011    0.0027    0.0003 H         1 ATP         0.0854
     40 HO2'       -0.6141    0.5574    2.1082 H         1 ATP         0.4367
     41 H1'         1.7826    1.9024    1.6451 H         1 ATP         0.1343
     42 H8          0.7125    2.3429   -1.9292 H         1 ATP         0.3302
     43 HN62       -3.3217    6.4517    0.2629 H         1 ATP         0.4160
     44 H2         -1.5188    4.4223    3.7890 H         1 ATP         0.0756
     45 H45        -2.7470    5.7627    2.3665 H         1 ATP         0.4587
     46 H46        -1.0305    4.1680   -2.1054 H         1 ATP         0.5254
@<TRIPOS>BOND
     1    1    2 2
     2    1    3 1
     3    1    4 1
     4    1    8 1
     5    4   32 1
     6    5    6 2
     7    5    7 1
     8    5    8 1
     9    5   12 1
    10    7   33 1
    11    9   10 2
    12    9   11 1
    13    9   12 1
    14    9   13 1
    15   13   14 1
    16   14   15 1
    17   14   34 1
    18   14   35 1
    19   15   16 1
    20   15   17 1
    21   15   36 1
    22   16   21 1
    23   17   18 1
    24   17   19 1
    25   17   37 1
    26   18   38 1
    27   19   20 1
    28   19   21 1
    29   19   39 1
    30   20   40 1
    31   21   22 1
    32   21   41 1
    33   22   23 ar
    34   22   31 ar
    35   23   24 ar
    36   23   42 1
    37   24   25 ar
    38   24   46 1
    39   25   26 ar
    40   25   31 ar
    41   26   27 2
    42   26   28 ar
    43   27   43 1
    44   28   29 ar
    45   28   45 1
    46   29   30 ar
    47   29   44 1
    48   30   31 ar
@<TRIPOS>SUBSTRUCTURE
     1 ATP         1 GROUP 0 A     ****
@<TRIPOS>MOLECULE
[[[3,4-dihydroxy-5-(6-imino-7,8-dihydro-1~{H}-purin-8-ylium-9-yl)tetrahydrofuran-2-yl]methoxy-oxido-phosphoryl]oxy-hydroxy-phosphoryl] hydrogen phosphate
   46    48     1     0     0
SMALL
USER_CHARGES

@<TRIPOS>ATOM
      1 PG         -1.3722    0.1890   -7.1823 P.3       1 ATP         1.5595
      2 O1G        -0.7617    0.5967   -8.5048 O.co2     1 ATP        -0.8438
      3 O2G        -2.4738    1.0096   -6.5493 O.co2     1 ATP        -0.8438
      4 O3G        -1.8812   -1.3579   -7.3015 O.3       1 ATP        -0.7800
      5 PB          1.1583   -0.9348   -6.1668 P.3       1 ATP         1.9223
      6 O1B         0.9236   -2.4048   -6.3518 O.2       1 ATP        -0.8953
      7 O2B         2.0371   -0.2298   -7.3262 O.3       1 ATP        -0.8165
      8 O3B        -0.1774   -0.0274   -6.0934 O.3       1 ATP        -0.8247
      9 PA          2.3334    0.9635   -4.2388 P.3       1 ATP         1.6157
     10 O1A         1.0794    1.7628   -3.9589 O.co2     1 ATP        -0.8629
     11 O2A         3.4182    1.5161   -5.1375 O.co2     1 ATP        -0.8629
     12 O3A         1.9049   -0.5092   -4.7989 O.3       1 ATP        -0.8191
     13 O5'         3.0213    0.5153   -2.8245 O.3       1 ATP        -0.5644
     14 C5'         2.2816   -0.2918   -1.9206 C.3       1 ATP         0.2062
     15 C4'         2.7248    0.0226   -0.4980 C.3       1 ATP         0.0971
     16 O4'         2.4697    1.4219   -0.2462 O.3       1 ATP        -0.3662
     17 C3'         1.9404   -0.7419    0.5596 C.3       1 ATP         0.0734
     18 O3'         2.7418   -0.8086    1.7389 O.3       1 ATP        -0.5671
     19 C2'         0.7477    0.1630    0.7858 C.3       1 ATP         0.0745
     20 O2'         0.1373   -0.0577    2.0407 O.3       1 ATP        -0.5794
     21 C1'         1.3733    1.5427    0.6747 C.3       1 ATP         0.3824
     22 N9          0.4520    2.5240    0.1767 N.pl3     1 ATP        -0.4324
     23 C8         -0.2004    2.4829   -0.9804 C.ar      1 ATP         0.2662
     24 N7         -0.9830    3.5431   -1.1568 N.pl3     1 ATP        -0.4772
     25 C5         -0.8095    4.3012   -0.0331 C.ar      1 ATP        -0.1305
     26 C6         -1.4065    5.5904    0.3585 C.ar      1 ATP         0.7186
     27 N6         -2.2501    6.2030   -0.4084 N.2       1 ATP        -0.8115
     28 N1         -0.9585    6.0272    1.5994 N.pl3     1 ATP        -0.8400
     29 C2         -0.0508    5.3009    2.3532 C.ar      1 ATP         0.6671
     30 N3          0.4890    4.1592    2.0257 N.2       1 ATP        -0.5806
     31 C4          0.0637    3.7006    0.7995 C.ar      1 ATP         0.2748
     32 HOG3       -2.3039   -1.7717   -6.5190 H         1 ATP         0.4327
     33 HOB2        1.7091   -0.2525   -8.2504 H         1 ATP         0.4701
     34 H5'1        1.2163   -0.0770   -2.0471 H         1 ATP         0.0401
     35 H5'2        2.4655   -1.3443   -2.1563 H         1 ATP         0.0401
     36 H4'         3.8044   -0.1397   -0.4040 H         1 ATP         0.1136
     37 H3'         1.6764   -1.7639    0.2728 H         1 ATP         0.0693
     38 HO3'        2.2232   -1.2979    2.3953 H         1 ATP         0.4124
     39 H2'        -0.0011    0.0027    0.0003 H         1 ATP         0.0854
     40 HO2'       -0.6141    0.5574    2.1082 H         1 ATP         0.4367
     41 H1'         1.7826    1.9024    1.6451 H         1 ATP         0.1343
     42 H8         -0.1116    1.6863   -1.6984 H         1 ATP         0.3302
     43 HN62       -2.5420    7.0730    0.0447 H         1 ATP         0.4160
     44 H2          0.1969    5.7893    3.3086 H         1 ATP         0.0756
     45 H45        -1.3097    6.9080    1.9642 H         1 ATP         0.4587
     46 H46        -1.5735    3.7351   -1.9538 H         1 ATP         0.5254
@<TRIPOS>BOND
     1    1    2 2
     2    1    3 1
     3    1    4 1
     4    1    8 1
     5    4   32 1
     6    5    6 2
     7    5    7 1
     8    5    8 1
     9    5   12 1
    10    7   33 1
    11    9   10 2
    12    9   11 1
    13    9   12 1
    14    9   13 1
    15   13   14 1
    16   14   15 1
    17   14   34 1
    18   14   35 1
    19   15   16 1
    20   15   17 1
    21   15   36 1
    22   16   21 1
    23   17   18 1
    24   17   19 1
    25   17   37 1
    26   18   38 1
    27   19   20 1
    28   19   21 1
    29   19   39 1
    30   20   40 1
    31   21   22 1
    32   21   41 1
    33   22   23 ar
    34   22   31 ar
    35   23   24 ar
    36   23   42 1
    37   24   25 ar
    38   24   46 1
    39   25   26 ar
    40   25   31 ar
    41   26   27 2
    42   26   28 ar
    43   27   43 1
    44   28   29 ar
    45   28   45 1
    46   29   30 ar
    47   29   44 1
    48   30   31 ar
@<TRIPOS>SUBSTRUCTURE
     1 ATP         1 GROUP 0 A     ****
@<TRIPOS>MOLECULE
[[[3,4-dihydroxy-5-(6-imino-7,8-dihydro-1~{H}-purin-8-ylium-9-yl)tetrahydrofuran-2-yl]methoxy-oxido-phosphoryl]oxy-hydroxy-phosphoryl] hydrogen phosphate
   46    48     1     0     0
SMALL
USER_CHARGES

@<TRIPOS>ATOM
      1 PG         -3.2847   -0.6543    6.0063 P.3       1 ATP         1.5595
      2 O1G        -2.6166   -0.2395    7.2984 O.co2     1 ATP        -0.8438
      3 O2G        -4.4846    0.0980    5.4757 O.co2     1 ATP        -0.8438
      4 O3G        -2.1507   -0.7154    4.8330 O.3       1 ATP        -0.7800
      5 PB         -2.7103   -3.5159    6.4297 P.3       1 ATP         1.9223
      6 O1B        -2.0716   -3.4910    7.7869 O.2       1 ATP        -0.8953
      7 O2B        -3.6715   -4.7848    6.1479 O.3       1 ATP        -0.8165
      8 O3B        -3.6449   -2.2431    6.0844 O.3       1 ATP        -0.8247
      9 PA         -0.5251   -4.5707    4.7523 P.3       1 ATP         1.6157
     10 O1A        -1.1708   -5.8915    4.3939 O.co2     1 ATP        -0.8629
     11 O2A         0.5743   -4.5036    5.7899 O.co2     1 ATP        -0.8629
     12 O3A        -1.6935   -3.5111    5.1745 O.3       1 ATP        -0.8191
     13 O5'         0.0118   -3.8395    3.3916 O.3       1 ATP        -0.5644
     14 C5'        -0.7840   -3.8935    2.2172 C.3       1 ATP         0.2062
     15 C4'        -0.0724   -3.1466    1.1027 C.3       1 ATP         0.0971
     16 O4'        -0.8674   -3.1929   -0.0945 O.3       1 ATP        -0.3662
     17 C3'         0.1338   -1.6715    1.4027 C.3       1 ATP         0.0734
     18 O3'         1.2893   -1.4445    2.1808 O.3       1 ATP        -0.5671
     19 C2'         0.2158   -1.0724    0.0128 C.3       1 ATP         0.0745
     20 O2'         1.5141   -1.2448   -0.5513 O.3       1 ATP        -0.5794
     21 C1'        -0.7897   -1.9176   -0.7583 C.3       1 ATP         0.3824
     22 N9         -2.1040   -1.3333   -0.7704 N.pl3     1 ATP        -0.4324
     23 C8         -3.0590   -1.5123    0.1363 C.ar      1 ATP         0.2662
     24 N7         -4.1655   -0.8354   -0.1554 N.pl3     1 ATP        -0.4772
     25 C5         -3.8852   -0.1874   -1.3253 C.ar      1 ATP        -0.1305
     26 C6         -4.7113    0.7160   -2.1458 C.ar      1 ATP         0.7186
     27 N6         -5.9213    1.0209   -1.8021 N.2       1 ATP        -0.8115
     28 N1         -4.0411    1.1673   -3.2764 N.pl3     1 ATP        -0.8400
     29 C2         -2.7403    0.7865   -3.5638 C.ar      1 ATP         0.6671
     30 N3         -1.9921   -0.0108   -2.8519 N.2       1 ATP        -0.5806
     31 C4         -2.6302   -0.4747   -1.7239 C.ar      1 ATP         0.2748
     32 HOG3       -2.4290   -0.9716    3.9280 H         1 ATP         0.4327
     33 HOB2       -3.2908   -5.6877    6.1926 H         1 ATP         0.4701
     34 H5'1       -0.9348   -4.9415    1.9415 H         1 ATP         0.0401
     35 H5'2       -1.7548   -3.4350    2.4278 H         1 ATP         0.0401
     36 H4'         0.8874   -3.6466    0.8805 H         1 ATP         0.1136
     37 H3'        -0.7376   -1.2333    1.9867 H         1 ATP         0.0693
     38 HO3'        1.1626   -1.9325    3.0084 H         1 ATP         0.4124
     39 H2'        -0.0384   -0.0310    0.0096 H         1 ATP         0.0854
     40 HO2'        2.1463   -0.7958    0.0370 H         1 ATP         0.4367
     41 H1'        -0.4769   -2.1002   -1.8093 H         1 ATP         0.1343
     42 H8         -2.9569   -2.1323    1.0098 H         1 ATP         0.3302
     43 HN62       -6.3169    1.6552   -2.5012 H         1 ATP         0.4160
     44 H2         -2.3612    1.2343   -4.4957 H         1 ATP         0.0756
     45 H45        -4.5223    1.7976   -3.9117 H         1 ATP         0.4587
     46 H46        -5.0218   -0.8132    0.3804 H         1 ATP         0.5254
@<TRIPOS>BOND
     1    1    2 2
     2    1    3 1
     3    1    4 1
     4    1    8 1
     5    4   32 1
     6    5    6 2
     7    5    7 1
     8    5    8 1
     9    5   12 1
    10    7   33 1
    11    9   10 2
    12    9   11 1
    13    9   12 1
    14    9   13 1
    15   13   14 1
    16   14   15 1
    17   14   34 1
    18   14   35 1
    19   15   16 1
    20   15   17 1
    21   15   36 1
    22   16   21 1
    23   17   18 1
    24   17   19 1
    25   17   37 1
    26   18   38 1
    27   19   20 1
    28   19   21 1
    29   19   39 1
    30   20   40 1
    31   21   22 1
    32   21   41 1
    33   22   23 ar
    34   22   31 ar
    35   23   24 ar
    36   23   42 1
    37   24   25 ar
    38   24   46 1
    39   25   26 ar
    40   25   31 ar
    41   26   27 2
    42   26   28 ar
    43   27   43 1
    44   28   29 ar
    45   28   45 1
    46   29   30 ar
    47   29   44 1
    48   30   31 ar
@<TRIPOS>SUBSTRUCTURE
     1 ATP         1 GROUP 0 A     ****
@<TRIPOS>MOLECULE
[[[3,4-dihydroxy-5-(6-imino-7,8-dihydro-1~{H}-purin-8-ylium-9-yl)tetrahydrofuran-2-yl]methoxy-oxido-phosphoryl]oxy-hydroxy-phosphoryl] hydrogen phosphate
   46    48     1     0     0
SMALL
USER_CHARGES

@<TRIPOS>ATOM
      1 PG          3.0763    4.6228   -5.9526 P.3       1 ATP         1.5595
      2 O1G         4.0109    4.5919   -7.1415 O.co2     1 ATP        -0.8438
      3 O2G         3.4148    5.4298   -4.7191 O.co2     1 ATP        -0.8438
      4 O3G         1.5927    5.0659   -6.4710 O.3       1 ATP        -0.7800
      5 PB          1.6898    2.5225   -4.4150 P.3       1 ATP         1.9223
      6 O1B         1.9223    2.9854   -3.0071 O.2       1 ATP        -0.8953
      7 O2B         0.2449    2.9037   -5.0320 O.3       1 ATP        -0.8165
      8 O3B         2.7354    3.0908   -5.5089 O.3       1 ATP        -0.8247
      9 PA          3.0673   -0.0858   -4.4292 P.3       1 ATP         1.6157
     10 O1A         4.2678    0.4442   -5.1827 O.co2     1 ATP        -0.8629
     11 O2A         2.5799   -1.5015   -4.6484 O.co2     1 ATP        -0.8629
     12 O3A         1.8103    0.9304   -4.6600 O.3       1 ATP        -0.8191
     13 O5'         3.2903    0.1346   -2.8241 O.3       1 ATP        -0.5644
     14 C5'         2.2816   -0.2918   -1.9206 C.3       1 ATP         0.2062
     15 C4'         2.7248    0.0226   -0.4980 C.3       1 ATP         0.0971
     16 O4'         2.4697    1.4219   -0.2462 O.3       1 ATP        -0.3662
     17 C3'         1.9404   -0.7419    0.5596 C.3       1 ATP         0.0734
     18 O3'         2.7418   -0.8086    1.7389 O.3       1 ATP        -0.5671
     19 C2'         0.7477    0.1630    0.7858 C.3       1 ATP         0.0745
     20 O2'         0.1373   -0.0577    2.0407 O.3       1 ATP        -0.5794
     21 C1'         1.3733    1.5427    0.6747 C.3       1 ATP         0.3824
     22 N9          0.4520    2.5240    0.1767 N.pl3     1 ATP        -0.4324
     23 C8         -0.2004    2.4829   -0.9804 C.ar      1 ATP         0.2662
     24 N7         -0.9830    3.5431   -1.1568 N.pl3     1 ATP        -0.4772
     25 C5         -0.8095    4.3012   -0.0331 C.ar      1 ATP        -0.1305
     26 C6         -1.4065    5.5904    0.3585 C.ar      1 ATP         0.7186
     27 N6         -2.2501    6.2030   -0.4084 N.2       1 ATP        -0.8115
     28 N1         -0.9585    6.0272    1.5994 N.pl3     1 ATP        -0.8400
     29 C2         -0.0508    5.3009    2.3532 C.ar      1 ATP         0.6671
     30 N3          0.4890    4.1592    2.0257 N.2       1 ATP        -0.5806
     31 C4          0.0637    3.7006    0.7995 C.ar      1 ATP         0.2748
     32 HOG3        1.1454    4.5051   -7.1401 H         1 ATP         0.4327
     33 HOB2       -0.0070    3.8492   -5.1013 H         1 ATP         0.4701
     34 H5'1        1.3514    0.2330   -2.1577 H         1 ATP         0.0401
     35 H5'2        2.1280   -1.3678   -2.0460 H         1 ATP         0.0401
     36 H4'         3.8044   -0.1397   -0.4040 H         1 ATP         0.1136
     37 H3'         1.6764   -1.7639    0.2728 H         1 ATP         0.0693
     38 HO3'        2.2232   -1.2979    2.3953 H         1 ATP         0.4124
     39 H2'        -0.0011    0.0027    0.0003 H         1 ATP         0.0854
     40 HO2'       -0.1563   -0.9855    2.0596 H         1 ATP         0.4367
     41 H1'         1.7826    1.9024    1.6451 H         1 ATP         0.1343
     42 H8         -0.1116    1.6863   -1.6984 H         1 ATP         0.3302
     43 HN62       -2.5420    7.0730    0.0447 H         1 ATP         0.4160
     44 H2          0.1969    5.7893    3.3086 H         1 ATP         0.0756
     45 H45        -1.3097    6.9080    1.9642 H         1 ATP         0.4587
     46 H46        -1.5735    3.7351   -1.9538 H         1 ATP         0.5254
@<TRIPOS>BOND
     1    1    2 2
     2    1    3 1
     3    1    4 1
     4    1    8 1
     5    4   32 1
     6    5    6 2
     7    5    7 1
     8    5    8 1
     9    5   12 1
    10    7   33 1
    11    9   10 2
    12    9   11 1
    13    9   12 1
    14    9   13 1
    15   13   14 1
    16   14   15 1
    17   14   34 1
    18   14   35 1
    19   15   16 1
    20   15   17 1
    21   15   36 1
    22   16   21 1
    23   17   18 1
    24   17   19 1
    25   17   37 1
    26   18   38 1
    27   19   20 1
    28   19   21 1
    29   19   39 1
    30   20   40 1
    31   21   22 1
    32   21   41 1
    33   22   23 ar
    34   22   31 ar
    35   23   24 ar
    36   23   42 1
    37   24   25 ar
    38   24   46 1
    39   25   26 ar
    40   25   31 ar
    41   26   27 2
    42   26   28 ar
    43   27   43 1
    44   28   29 ar
    45   28   45 1
    46   29   30 ar
    47   29   44 1
    48   30   31 ar
@<TRIPOS>SUBSTRUCTURE
     1 ATP         1 GROUP 0 A     ****
@<TRIPOS>MOLECULE
[[[3,4-dihydroxy-5-(6-imino-7,8-dihydro-1~{H}-purin-8-ylium-9-yl)tetrahydrofuran-2-yl]methoxy-oxido-phosphoryl]oxy-hydroxy-phosphoryl] hydrogen phosphate
   46    48     1     0     0
SMALL
USER_CHARGES

@<TRIPOS>ATOM
      1 PG          3.4119   -4.6145    3.1805 P.3       1 ATP         1.5595
      2 O1G         4.0787   -4.2156    4.4782 O.co2     1 ATP        -0.8438
      3 O2G         3.3780   -3.6678    2.0014 O.co2     1 ATP        -0.8438
      4 O3G         4.0474   -6.0352    2.6866 O.3       1 ATP        -0.7800
      5 PB          1.3570   -6.2373    4.5376 P.3       1 ATP         1.9223
      6 O1B         1.8802   -7.6250    4.3117 O.2       1 ATP        -0.8953
      7 O2B         1.6925   -5.6061    5.9877 O.3       1 ATP        -0.8165
      8 O3B         1.8947   -5.1206    3.5000 O.3       1 ATP        -0.8247
      9 PA         -1.2302   -6.3289    3.1239 P.3       1 ATP         1.6157
     10 O1A        -2.6253   -5.8653    3.4829 O.co2     1 ATP        -0.8629
     11 O2A        -0.9875   -7.7370    2.6259 O.co2     1 ATP        -0.8629
     12 O3A        -0.2419   -6.0574    4.3950 O.3       1 ATP        -0.8191
     13 O5'        -0.5687   -5.2869    2.0510 O.3       1 ATP        -0.5644
     14 C5'        -0.7840   -3.8935    2.2172 C.3       1 ATP         0.2062
     15 C4'        -0.0724   -3.1466    1.1027 C.3       1 ATP         0.0971
     16 O4'        -0.8674   -3.1929   -0.0945 O.3       1 ATP        -0.3662
     17 C3'         0.1338   -1.6715    1.4027 C.3       1 ATP         0.0734
     18 O3'         1.2893   -1.4445    2.1808 O.3       1 ATP        -0.5671
     19 C2'         0.2158   -1.0724    0.0128 C.3       1 ATP         0.0745
     20 O2'         1.5141   -1.2448   -0.5513 O.3       1 ATP        -0.5794
     21 C1'        -0.7897   -1.9176   -0.7583 C.3       1 ATP         0.3824
     22 N9         -2.1040   -1.3333   -0.7704 N.pl3     1 ATP        -0.4324
     23 C8         -3.0590   -1.5123    0.1363 C.ar      1 ATP         0.2662
     24 N7         -4.1655   -0.8354   -0.1554 N.pl3     1 ATP        -0.4772
     25 C5         -3.8852   -0.1874   -1.3253 C.ar      1 ATP        -0.1305
     26 C6         -4.7113    0.7160   -2.1458 C.ar      1 ATP         0.7186
     27 N6         -5.9213    1.0209   -1.8021 N.2       1 ATP        -0.8115
     28 N1         -4.0411    1.1673   -3.2764 N.pl3     1 ATP        -0.8400
     29 C2         -2.7403    0.7865   -3.5638 C.ar      1 ATP         0.6671
     30 N3         -1.9921   -0.0108   -2.8519 N.2       1 ATP        -0.5806
     31 C4         -2.6302   -0.4747   -1.7239 C.ar      1 ATP         0.2748
     32 HOG3        3.7155   -6.4299    1.8522 H         1 ATP         0.4327
     33 HOB2        2.6308   -5.4983    6.2527 H         1 ATP         0.4701
     34 H5'1       -1.8598   -3.6968    2.1850 H         1 ATP         0.0401
     35 H5'2       -0.3933   -3.5903    3.1931 H         1 ATP         0.0401
     36 H4'         0.8874   -3.6466    0.8805 H         1 ATP         0.1136
     37 H3'        -0.7376   -1.2333    1.9867 H         1 ATP         0.0693
     38 HO3'        1.3408   -0.4870    2.3219 H         1 ATP         0.4124
     39 H2'        -0.0384   -0.0310    0.0096 H         1 ATP         0.0854
     40 HO2'        2.1463   -0.7958    0.0370 H         1 ATP         0.4367
     41 H1'        -0.4769   -2.1002   -1.8093 H         1 ATP         0.1343
     42 H8         -2.9569   -2.1323    1.0098 H         1 ATP         0.3302
     43 HN62       -6.3169    1.6552   -2.5012 H         1 ATP         0.4160
     44 H2         -2.3612    1.2343   -4.4957 H         1 ATP         0.0756
     45 H45        -4.5223    1.7976   -3.9117 H         1 ATP         0.4587
     46 H46        -5.0218   -0.8132    0.3804 H         1 ATP         0.5254
@<TRIPOS>BOND
     1    1    2 2
     2    1    3 1
     3    1    4 1
     4    1    8 1
     5    4   32 1
     6    5    6 2
     7    5    7 1
     8    5    8 1
     9    5   12 1
    10    7   33 1
    11    9   10 2
    12    9   11 1
    13    9   12 1
    14    9   13 1
    15   13   14 1
    16   14   15 1
    17   14   34 1
    18   14   35 1
    19   15   16 1
    20   15   17 1
    21   15   36 1
    22   16   21 1
    23   17   18 1
    24   17   19 1
    25   17   37 1
    26   18   38 1
    27   19   20 1
    28   19   21 1
    29   19   39 1
    30   20   40 1
    31   21   22 1
    32   21   41 1
    33   22   23 ar
    34   22   31 ar
    35   23   24 ar
    36   23   42 1
    37   24   25 ar
    38   24   46 1
    39   25   26 ar
    40   25   31 ar
    41   26   27 2
    42   26   28 ar
    43   27   43 1
    44   28   29 ar
    45   28   45 1
    46   29   30 ar
    47   29   44 1
    48   30   31 ar
@<TRIPOS>SUBSTRUCTURE
     1 ATP         1 GROUP 0 A     ****
@<TRIPOS>MOLECULE
[[[3,4-dihydroxy-5-(6-imino-7,8-dihydro-1~{H}-purin-8-ylium-9-yl)tetrahydrofuran-2-yl]methoxy-oxido-phosphoryl]oxy-hydroxy-phosphoryl] hydrogen phosphate
   46    48     1     0     0
SMALL
USER_CHARGES

@<TRIPOS>ATOM
      1 PG          1.4699    1.2159   -8.6884 P.3       1 ATP         1.5595
      2 O1G         1.0626    2.6556   -8.9099 O.co2     1 ATP        -0.8438
      3 O2G         0.6341    0.0794   -9.2336 O.co2     1 ATP        -0.8438
      4 O3G         3.0058    1.0259   -9.2090 O.3       1 ATP        -0.7800
      5 PB          0.6798    0.9946   -5.8556 P.3       1 ATP         1.9223
      6 O1B        -0.0484    2.2899   -5.6503 O.2       1 ATP        -0.8953
      7 O2B        -0.2662   -0.2874   -6.1299 O.3       1 ATP        -0.8165
      8 O3B         1.7181    0.9765   -7.0943 O.3       1 ATP        -0.8247
      9 PA          2.9230    1.2546   -3.9578 P.3       1 ATP         1.6157
     10 O1A         2.4619    2.5263   -3.2796 O.co2     1 ATP        -0.8629
     11 O2A         4.0434    1.2827   -4.9744 O.co2     1 ATP        -0.8629
     12 O3A         1.6316    0.5231   -4.6386 O.3       1 ATP        -0.8191
     13 O5'         3.2903    0.1346   -2.8241 O.3       1 ATP        -0.5644
     14 C5'         2.2816   -0.2918   -1.9206 C.3       1 ATP         0.2062
     15 C4'         2.7248    0.0226   -0.4980 C.3       1 ATP         0.0971
     16 O4'         2.4697    1.4219   -0.2462 O.3       1 ATP        -0.3662
     17 C3'         1.9404   -0.7419    0.5596 C.3       1 ATP         0.0734
     18 O3'         2.7418   -0.8086    1.7389 O.3       1 ATP        -0.5671
     19 C2'         0.7477    0.1630    0.7858 C.3       1 ATP         0.0745
     20 O2'         0.1373   -0.0577    2.0407 O.3       1 ATP        -0.5794
     21 C1'         1.3733    1.5427    0.6747 C.3       1 ATP         0.3824
     22 N9          0.4520    2.5240    0.1767 N.pl3     1 ATP        -0.4324
     23 C8         -0.2004    2.4829   -0.9804 C.ar      1 ATP         0.2662
     24 N7         -0.9830    3.5431   -1.1568 N.pl3     1 ATP        -0.4772
     25 C5         -0.8095    4.3012   -0.0331 C.ar      1 ATP        -0.1305
     26 C6         -1.4065    5.5904    0.3585 C.ar      1 ATP         0.7186
     27 N6         -2.2501    6.2030   -0.4084 N.2       1 ATP        -0.8115
     28 N1         -0.9585    6.0272    1.5994 N.pl3     1 ATP        -0.8400
     29 C2         -0.0508    5.3009    2.3532 C.ar      1 ATP         0.6671
     30 N3          0.4890    4.1592    2.0257 N.2       1 ATP        -0.5806
     31 C4          0.0637    3.7006    0.7995 C.ar      1 ATP         0.2748
     32 HOG3        3.4182    0.1392   -9.1325 H         1 ATP         0.4327
     33 HOB2       -0.9226   -0.5471   -5.4488 H         1 ATP         0.4701
     34 H5'1        1.3514    0.2330   -2.1577 H         1 ATP         0.0401
     35 H5'2        2.1280   -1.3678   -2.0460 H         1 ATP         0.0401
     36 H4'         3.8044   -0.1397   -0.4040 H         1 ATP         0.1136
     37 H3'         1.6764   -1.7639    0.2728 H         1 ATP         0.0693
     38 HO3'        3.5554   -1.2733    1.4914 H         1 ATP         0.4124
     39 H2'        -0.0011    0.0027    0.0003 H         1 ATP         0.0854
     40 HO2'       -0.1563   -0.9855    2.0596 H         1 ATP         0.4367
     41 H1'         1.7826    1.9024    1.6451 H         1 ATP         0.1343
     42 H8         -0.1116    1.6863   -1.6984 H         1 ATP         0.3302
     43 HN62       -2.5420    7.0730    0.0447 H         1 ATP         0.4160
     44 H2          0.1969    5.7893    3.3086 H         1 ATP         0.0756
     45 H45        -1.3097    6.9080    1.9642 H         1 ATP         0.4587
     46 H46        -1.5735    3.7351   -1.9538 H         1 ATP         0.5254
@<TRIPOS>BOND
     1    1    2 2
     2    1    3 1
     3    1    4 1
     4    1    8 1
     5    4   32 1
     6    5    6 2
     7    5    7 1
     8    5    8 1
     9    5   12 1
    10    7   33 1
    11    9   10 2
    12    9   11 1
    13    9   12 1
    14    9   13 1
    15   13   14 1
    16   14   15 1
    17   14   34 1
    18   14   35 1
    19   15   16 1
    20   15   17 1
    21   15   36 1
    22   16   21 1
    23   17   18 1
    24   17   19 1
    25   17   37 1
    26   18   38 1
    27   19   20 1
    28   19   21 1
    29   19   39 1
    30   20   40 1
    31   21   22 1
    32   21   41 1
    33   22   23 ar
    34   22   31 ar
    35   23   24 ar
    36   23   42 1
    37   24   25 ar
    38   24   46 1
    39   25   26 ar
    40   25   31 ar
    41   26   27 2
    42   26   28 ar
    43   27   43 1
    44   28   29 ar
    45   28   45 1
    46   29   30 ar
    47   29   44 1
    48   30   31 ar
@<TRIPOS>SUBSTRUCTURE
     1 ATP         1 GROUP 0 A     ****
@<TRIPOS>MOLECULE
[[[3,4-dihydroxy-5-(6-imino-7,8-dihydro-1~{H}-purin-8-ylium-9-yl)tetrahydrofuran-2-yl]methoxy-oxido-phosphoryl]oxy-hydroxy-phosphoryl] hydrogen phosphate
   46    48     1     0     0
SMALL
USER_CHARGES

@<TRIPOS>ATOM
      1 PG          4.6552   -1.1412   -7.4623 P.3       1 ATP         1.5595
      2 O1G         4.8927   -2.4938   -8.0963 O.co2     1 ATP        -0.8438
      3 O2G         5.6700   -0.5369   -6.5177 O.co2     1 ATP        -0.8438
      4 O3G         4.3421   -0.0616   -8.6466 O.3       1 ATP        -0.7800
      5 PB          2.6587   -1.9707   -5.4564 P.3       1 ATP         1.9223
      6 O1B         1.2304   -1.7109   -5.0784 O.2       1 ATP        -0.8953
      7 O2B         3.0030   -3.5082   -5.8184 O.3       1 ATP        -0.8165
      8 O3B         3.1929   -1.1461   -6.7399 O.3       1 ATP        -0.8247
      9 PA          3.9668   -2.1113   -2.8163 P.3       1 ATP         1.6157
     10 O1A         5.0717   -1.3104   -2.1623 O.co2     1 ATP        -0.8629
     11 O2A         4.0213   -3.6232   -2.8462 O.co2     1 ATP        -0.8629
     12 O3A         3.7625   -1.5756   -4.3451 O.3       1 ATP        -0.8191
     13 O5'         2.5245   -1.6648   -2.1878 O.3       1 ATP        -0.5644
     14 C5'         2.2816   -0.2918   -1.9206 C.3       1 ATP         0.2062
     15 C4'         2.7248    0.0226   -0.4980 C.3       1 ATP         0.0971
     16 O4'         2.4697    1.4219   -0.2462 O.3       1 ATP        -0.3662
     17 C3'         1.9404   -0.7419    0.5596 C.3       1 ATP         0.0734
     18 O3'         2.7418   -0.8086    1.7389 O.3       1 ATP        -0.5671
     19 C2'         0.7477    0.1630    0.7858 C.3       1 ATP         0.0745
     20 O2'         0.1373   -0.0577    2.0407 O.3       1 ATP        -0.5794
     21 C1'         1.3733    1.5427    0.6747 C.3       1 ATP         0.3824
     22 N9          0.4520    2.5240    0.1767 N.pl3     1 ATP        -0.4324
     23 C8          0.2216    2.8192   -1.0985 C.ar      1 ATP         0.2662
     24 N7         -0.6906    3.7763   -1.2384 N.pl3     1 ATP        -0.4772
     25 C5         -1.0575    4.1037    0.0366 C.ar      1 ATP        -0.1305
     26 C6         -2.0291    5.0943    0.5330 C.ar      1 ATP         0.7186
     27 N6         -2.7093    5.8371   -0.2800 N.2       1 ATP        -0.8115
     28 N1         -2.1051    5.1136    1.9204 N.pl3     1 ATP        -0.8400
     29 C2         -1.3354    4.2774    2.7129 C.ar      1 ATP         0.6671
     30 N3         -0.4707    3.3945    2.2944 N.2       1 ATP        -0.5806
     31 C4         -0.3734    3.3525    0.9220 C.ar      1 ATP         0.2748
     32 HOG3        4.1650    0.8697   -8.3943 H         1 ATP         0.4327
     33 HOB2        2.8605   -4.1995   -5.1372 H         1 ATP         0.4701
     34 H5'1        2.8432    0.3119   -2.6398 H         1 ATP         0.0401
     35 H5'2        1.2128   -0.0927   -2.0428 H         1 ATP         0.0401
     36 H4'         3.8044   -0.1397   -0.4040 H         1 ATP         0.1136
     37 H3'         1.6764   -1.7639    0.2728 H         1 ATP         0.0693
     38 HO3'        2.2232   -1.2979    2.3953 H         1 ATP         0.4124
     39 H2'        -0.0011    0.0027    0.0003 H         1 ATP         0.0854
     40 HO2'       -0.6141    0.5574    2.1082 H         1 ATP         0.4367
     41 H1'         1.7826    1.9024    1.6451 H         1 ATP         0.1343
     42 H8          0.7125    2.3429   -1.9292 H         1 ATP         0.3302
     43 HN62       -3.3217    6.4517    0.2629 H         1 ATP         0.4160
     44 H2         -1.5188    4.4223    3.7890 H         1 ATP         0.0756
     45 H45        -2.7470    5.7627    2.3665 H         1 ATP         0.4587
     46 H46        -1.0305    4.1680   -2.1054 H         1 ATP         0.5254
@<TRIPOS>BOND
     1    1    2 2
     2    1    3 1
     3    1    4 1
     4    1    8 1
     5    4   32 1
     6    5    6 2
     7    5    7 1
     8    5    8 1
     9    5   12 1
    10    7   33 1
    11    9   10 2
    12    9   11 1
    13    9   12 1
    14    9   13 1
    15   13   14 1
    16   14   15 1
    17   14   34 1
    18   14   35 1
    19   15   16 1
    20   15   17 1
    21   15   36 1
    22   16   21 1
    23   17   18 1
    24   17   19 1
    25   17   37 1
    26   18   38 1
    27   19   20 1
    28   19   21 1
    29   19   39 1
    30   20   40 1
    31   21   22 1
    32   21   41 1
    33   22   23 ar
    34   22   31 ar
    35   23   24 ar
    36   23   42 1
    37   24   25 ar
    38   24   46 1
    39   25   26 ar
    40   25   31 ar
    41   26   27 2
    42   26   28 ar
    43   27   43 1
    44   28   29 ar
    45   28   45 1
    46   29   30 ar
    47   29   44 1
    48   30   31 ar
@<TRIPOS>SUBSTRUCTURE
     1 ATP         1 GROUP 0 A     ****
@<TRIPOS>MOLECULE
[[[3,4-dihydroxy-5-(6-imino-7,8-dihydro-1~{H}-purin-8-ylium-9-yl)tetrahydrofuran-2-yl]methoxy-oxido-phosphoryl]oxy-hydroxy-phosphoryl] hydrogen phosphate
   46    48     1     0     0
SMALL
USER_CHARGES

@<TRIPOS>ATOM
      1 PG          6.7156    2.1250   -1.6942 P.3       1 ATP         1.5595
      2 O1G         5.4509    1.8211   -0.9223 O.co2     1 ATP        -0.8438
      3 O2G         6.7988    3.3286   -2.6063 O.co2     1 ATP        -0.8438
      4 O3G         7.9631    2.1843   -0.6424 O.3       1 ATP        -0.7800
      5 PB          6.4422    0.0466   -3.7686 P.3       1 ATP         1.9223
      6 O1B         6.2625    0.8820   -5.0015 O.2       1 ATP        -0.8953
      7 O2B         7.3260   -1.2919   -3.9706 O.3       1 ATP        -0.8165
      8 O3B         7.1583    0.7947   -2.5275 O.3       1 ATP        -0.8247
      9 PA          3.8939   -1.4355   -3.6657 P.3       1 ATP         1.6157
     10 O1A         4.4570   -2.8155   -3.9273 O.co2     1 ATP        -0.8629
     11 O2A         3.1748   -0.6739   -4.7577 O.co2     1 ATP        -0.8629
     12 O3A         5.0832   -0.4849   -3.0758 O.3       1 ATP        -0.8191
     13 O5'         2.9216   -1.4836   -2.3516 O.3       1 ATP        -0.5644
     14 C5'         2.2816   -0.2918   -1.9206 C.3       1 ATP         0.2062
     15 C4'         2.7248    0.0226   -0.4980 C.3       1 ATP         0.0971
     16 O4'         2.4697    1.4219   -0.2462 O.3       1 ATP        -0.3662
     17 C3'         1.9404   -0.7419    0.5596 C.3       1 ATP         0.0734
     18 O3'         2.7418   -0.8086    1.7389 O.3       1 ATP        -0.5671
     19 C2'         0.7477    0.1630    0.7858 C.3       1 ATP         0.0745
     20 O2'         0.1373   -0.0577    2.0407 O.3       1 ATP        -0.5794
     21 C1'         1.3733    1.5427    0.6747 C.3       1 ATP         0.3824
     22 N9          0.4520    2.5240    0.1767 N.pl3     1 ATP        -0.4324
     23 C8          0.2216    2.8192   -1.0985 C.ar      1 ATP         0.2662
     24 N7         -0.6906    3.7763   -1.2384 N.pl3     1 ATP        -0.4772
     25 C5         -1.0575    4.1037    0.0366 C.ar      1 ATP        -0.1305
     26 C6         -2.0291    5.0943    0.5330 C.ar      1 ATP         0.7186
     27 N6         -2.7093    5.8371   -0.2800 N.2       1 ATP        -0.8115
     28 N1         -2.1051    5.1136    1.9204 N.pl3     1 ATP        -0.8400
     29 C2         -1.3354    4.2774    2.7129 C.ar      1 ATP         0.6671
     30 N3         -0.4707    3.3945    2.2944 N.2       1 ATP        -0.5806
     31 C4         -0.3734    3.3525    0.9220 C.ar      1 ATP         0.2748
     32 HOG3        8.8598    2.3736   -0.9921 H         1 ATP         0.4327
     33 HOB2        8.2543   -1.2061   -4.2761 H         1 ATP         0.4701
     34 H5'1        2.5589    0.5217   -2.5976 H         1 ATP         0.0401
     35 H5'2        1.1982   -0.4388   -1.9617 H         1 ATP         0.0401
     36 H4'         3.8044   -0.1397   -0.4040 H         1 ATP         0.1136
     37 H3'         1.6764   -1.7639    0.2728 H         1 ATP         0.0693
     38 HO3'        2.2232   -1.2979    2.3953 H         1 ATP         0.4124
     39 H2'        -0.0011    0.0027    0.0003 H         1 ATP         0.0854
     40 HO2'       -0.6141    0.5574    2.1082 H         1 ATP         0.4367
     41 H1'         1.7826    1.9024    1.6451 H         1 ATP         0.1343
     42 H8          0.7125    2.3429   -1.9292 H         1 ATP         0.3302
     43 HN62       -3.3217    6.4517    0.2629 H         1 ATP         0.4160
     44 H2         -1.5188    4.4223    3.7890 H         1 ATP         0.0756
     45 H45        -2.7470    5.7627    2.3665 H         1 ATP         0.4587
     46 H46        -1.0305    4.1680   -2.1054 H         1 ATP         0.5254
@<TRIPOS>BOND
     1    1    2 2
     2    1    3 1
     3    1    4 1
     4    1    8 1
     5    4   32 1
     6    5    6 2
     7    5    7 1
     8    5    8 1
     9    5   12 1
    10    7   33 1
    11    9   10 2
    12    9   11 1
    13    9   12 1
    14    9   13 1
    15   13   14 1
    16   14   15 1
    17   14   34 1
    18   14   35 1
    19   15   16 1
    20   15   17 1
    21   15   36 1
    22   16   21 1
    23   17   18 1
    24   17   19 1
    25   17   37 1
    26   18   38 1
    27   19   20 1
    28   19   21 1
    29   19   39 1
    30   20   40 1
    31   21   22 1
    32   21   41 1
    33   22   23 ar
    34   22   31 ar
    35   23   24 ar
    36   23   42 1
    37   24   25 ar
    38   24   46 1
    39   25   26 ar
    40   25   31 ar
    41   26   27 2
    42   26   28 ar
    43   27   43 1
    44   28   29 ar
    45   28   45 1
    46   29   30 ar
    47   29   44 1
    48   30   31 ar
@<TRIPOS>SUBSTRUCTURE
     1 ATP         1 GROUP 0 A     ****
@<TRIPOS>MOLECULE
[[[3,4-dihydroxy-5-(6-imino-7,8-dihydro-1~{H}-purin-8-ylium-9-yl)tetrahydrofuran-2-yl]methoxy-oxido-phosphoryl]oxy-hydroxy-phosphoryl] hydrogen phosphate
   46    48     1     0     0
SMALL
USER_CHARGES

@<TRIPOS>ATOM
      1 PG          7.9952   -3.0505   -2.9776 P.3       1 ATP         1.5595
      2 O1G         9.0481   -2.2123   -3.6677 O.co2     1 ATP        -0.8438
      3 O2G         7.9835   -4.5561   -3.1213 O.co2     1 ATP        -0.8438
      4 O3G         7.9996   -2.6816   -1.3869 O.3       1 ATP        -0.7800
      5 PB          5.9205   -0.9718   -3.2467 P.3       1 ATP         1.9223
      6 O1B         5.8977   -0.3965   -1.8615 O.2       1 ATP        -0.8953
      7 O2B         6.7820   -0.1293   -4.3245 O.3       1 ATP        -0.8165
      8 O3B         6.5210   -2.4681   -3.3618 O.3       1 ATP        -0.8247
      9 PA          3.3342   -0.0516   -4.3262 P.3       1 ATP         1.6157
     10 O1A         2.1153   -0.7748   -4.8565 O.co2     1 ATP        -0.8629
     11 O2A         3.9830    1.0583   -5.1244 O.co2     1 ATP        -0.8629
     12 O3A         4.4805   -1.1538   -3.9557 O.3       1 ATP        -0.8191
     13 O5'         3.0213    0.5153   -2.8245 O.3       1 ATP        -0.5644
     14 C5'         2.2816   -0.2918   -1.9206 C.3       1 ATP         0.2062
     15 C4'         2.7248    0.0226   -0.4980 C.3       1 ATP         0.0971
     16 O4'         2.4697    1.4219   -0.2462 O.3       1 ATP        -0.3662
     17 C3'         1.9404   -0.7419    0.5596 C.3       1 ATP         0.0734
     18 O3'         2.7418   -0.8086    1.7389 O.3       1 ATP        -0.5671
     19 C2'         0.7477    0.1630    0.7858 C.3       1 ATP         0.0745
     20 O2'         0.1373   -0.0577    2.0407 O.3       1 ATP        -0.5794
     21 C1'         1.3733    1.5427    0.6747 C.3       1 ATP         0.3824
     22 N9          0.4520    2.5240    0.1767 N.pl3     1 ATP        -0.4324
     23 C8         -0.2004    2.4829   -0.9804 C.ar      1 ATP         0.2662
     24 N7         -0.9830    3.5431   -1.1568 N.pl3     1 ATP        -0.4772
     25 C5         -0.8095    4.3012   -0.0331 C.ar      1 ATP        -0.1305
     26 C6         -1.4065    5.5904    0.3585 C.ar      1 ATP         0.7186
     27 N6         -2.2501    6.2030   -0.4084 N.2       1 ATP        -0.8115
     28 N1         -0.9585    6.0272    1.5994 N.pl3     1 ATP        -0.8400
     29 C2         -0.0508    5.3009    2.3532 C.ar      1 ATP         0.6671
     30 N3          0.4890    4.1592    2.0257 N.2       1 ATP        -0.5806
     31 C4          0.0637    3.7006    0.7995 C.ar      1 ATP         0.2748
     32 HOG3        7.3667   -3.1457   -0.7984 H         1 ATP         0.4327
     33 HOB2        6.5297    0.8001   -4.5114 H         1 ATP         0.4701
     34 H5'1        1.2163   -0.0770   -2.0471 H         1 ATP         0.0401
     35 H5'2        2.4655   -1.3443   -2.1563 H         1 ATP         0.0401
     36 H4'         3.8044   -0.1397   -0.4040 H         1 ATP         0.1136
     37 H3'         1.6764   -1.7639    0.2728 H         1 ATP         0.0693
     38 HO3'        3.5554   -1.2733    1.4914 H         1 ATP         0.4124
     39 H2'        -0.0011    0.0027    0.0003 H         1 ATP         0.0854
     40 HO2'       -0.1563   -0.9855    2.0596 H         1 ATP         0.4367
     41 H1'         1.7826    1.9024    1.6451 H         1 ATP         0.1343
     42 H8         -0.1116    1.6863   -1.6984 H         1 ATP         0.3302
     43 HN62       -2.5420    7.0730    0.0447 H         1 ATP         0.4160
     44 H2          0.1969    5.7893    3.3086 H         1 ATP         0.0756
     45 H45        -1.3097    6.9080    1.9642 H         1 ATP         0.4587
     46 H46        -1.5735    3.7351   -1.9538 H         1 ATP         0.5254
@<TRIPOS>BOND
     1    1    2 2
     2    1    3 1
     3    1    4 1
     4    1    8 1
     5    4   32 1
     6    5    6 2
     7    5    7 1
     8    5    8 1
     9    5   12 1
    10    7   33 1
    11    9   10 2
    12    9   11 1
    13    9   12 1
    14    9   13 1
    15   13   14 1
    16   14   15 1
    17   14   34 1
    18   14   35 1
    19   15   16 1
    20   15   17 1
    21   15   36 1
    22   16   21 1
    23   17   18 1
    24   17   19 1
    25   17   37 1
    26   18   38 1
    27   19   20 1
    28   19   21 1
    29   19   39 1
    30   20   40 1
    31   21   22 1
    32   21   41 1
    33   22   23 ar
    34   22   31 ar
    35   23   24 ar
    36   23   42 1
    37   24   25 ar
    38   24   46 1
    39   25   26 ar
    40   25   31 ar
    41   26   27 2
    42   26   28 ar
    43   27   43 1
    44   28   29 ar
    45   28   45 1
    46   29   30 ar
    47   29   44 1
    48   30   31 ar
@<TRIPOS>SUBSTRUCTURE
     1 ATP         1 GROUP 0 A     ****
@<TRIPOS>MOLECULE
[[[3,4-dihydroxy-5-(6-imino-7,8-dihydro-1~{H}-purin-8-ylium-9-yl)tetrahydrofuran-2-yl]methoxy-oxido-phosphoryl]oxy-hydroxy-phosphoryl] hydrogen phosphate
   46    48     1     0     0
SMALL
USER_CHARGES

@<TRIPOS>ATOM
      1 PG          5.8780   -0.3979   -7.2425 P.3       1 ATP         1.5595
      2 O1G         5.4548    0.7650   -8.1123 O.co2     1 ATP        -0.8438
      3 O2G         6.2304   -1.7363   -7.8523 O.co2     1 ATP        -0.8438
      4 O3G         7.1203    0.0855   -6.2995 O.3       1 ATP        -0.7800
      5 PB          3.2195   -1.1087   -6.1819 P.3       1 ATP         1.9223
      6 O1B         2.3269   -0.2360   -7.0137 O.2       1 ATP        -0.8953
      7 O2B         3.3354   -2.6425   -6.6796 O.3       1 ATP        -0.8165
      8 O3B         4.7575   -0.6222   -6.0788 O.3       1 ATP        -0.8247
      9 PA          3.5300   -2.0728   -3.4114 P.3       1 ATP         1.6157
     10 O1A         4.9024   -1.4905   -3.1520 O.co2     1 ATP        -0.8629
     11 O2A         3.3570   -3.5495   -3.6925 O.co2     1 ATP        -0.8629
     12 O3A         2.8226   -1.2346   -4.6211 O.3       1 ATP        -0.8191
     13 O5'         2.5245   -1.6648   -2.1878 O.3       1 ATP        -0.5644
     14 C5'         2.2816   -0.2918   -1.9206 C.3       1 ATP         0.2062
     15 C4'         2.7248    0.0226   -0.4980 C.3       1 ATP         0.0971
     16 O4'         2.4697    1.4219   -0.2462 O.3       1 ATP        -0.3662
     17 C3'         1.9404   -0.7419    0.5596 C.3       1 ATP         0.0734
     18 O3'         2.7418   -0.8086    1.7389 O.3       1 ATP        -0.5671
     19 C2'         0.7477    0.1630    0.7858 C.3       1 ATP         0.0745
     20 O2'         0.1373   -0.0577    2.0407 O.3       1 ATP        -0.5794
     21 C1'         1.3733    1.5427    0.6747 C.3       1 ATP         0.3824
     22 N9          0.4520    2.5240    0.1767 N.pl3     1 ATP        -0.4324
     23 C8          0.2216    2.8192   -1.0985 C.ar      1 ATP         0.2662
     24 N7         -0.6906    3.7763   -1.2384 N.pl3     1 ATP        -0.4772
     25 C5         -1.0575    4.1037    0.0366 C.ar      1 ATP        -0.1305
     26 C6         -2.0291    5.0943    0.5330 C.ar      1 ATP         0.7186
     27 N6         -2.7093    5.8371   -0.2800 N.2       1 ATP        -0.8115
     28 N1         -2.1051    5.1136    1.9204 N.pl3     1 ATP        -0.8400
     29 C2         -1.3354    4.2774    2.7129 C.ar      1 ATP         0.6671
     30 N3         -0.4707    3.3945    2.2944 N.2       1 ATP        -0.5806
     31 C4         -0.3734    3.3525    0.9220 C.ar      1 ATP         0.2748
     32 HOG3        7.5102   -0.5613   -5.6736 H         1 ATP         0.4327
     33 HOB2        3.6807   -2.8245   -7.5795 H         1 ATP         0.4701
     34 H5'1        2.8432    0.3119   -2.6398 H         1 ATP         0.0401
     35 H5'2        1.2128   -0.0927   -2.0428 H         1 ATP         0.0401
     36 H4'         3.8044   -0.1397   -0.4040 H         1 ATP         0.1136
     37 H3'         1.6764   -1.7639    0.2728 H         1 ATP         0.0693
     38 HO3'        2.2232   -1.2979    2.3953 H         1 ATP         0.4124
     39 H2'        -0.0011    0.0027    0.0003 H         1 ATP         0.0854
     40 HO2'       -0.6141    0.5574    2.1082 H         1 ATP         0.4367
     41 H1'         1.7826    1.9024    1.6451 H         1 ATP         0.1343
     42 H8          0.7125    2.3429   -1.9292 H         1 ATP         0.3302
     43 HN62       -3.3217    6.4517    0.2629 H         1 ATP         0.4160
     44 H2         -1.5188    4.4223    3.7890 H         1 ATP         0.0756
     45 H45        -2.7470    5.7627    2.3665 H         1 ATP         0.4587
     46 H46        -1.0305    4.1680   -2.1054 H         1 ATP         0.5254
@<TRIPOS>BOND
     1    1    2 2
     2    1    3 1
     3    1    4 1
     4    1    8 1
     5    4   32 1
     6    5    6 2
     7    5    7 1
     8    5    8 1
     9    5   12 1
    10    7   33 1
    11    9   10 2
    12    9   11 1
    13    9   12 1
    14    9   13 1
    15   13   14 1
    16   14   15 1
    17   14   34 1
    18   14   35 1
    19   15   16 1
    20   15   17 1
    21   15   36 1
    22   16   21 1
    23   17   18 1
    24   17   19 1
    25   17   37 1
    26   18   38 1
    27   19   20 1
    28   19   21 1
    29   19   39 1
    30   20   40 1
    31   21   22 1
    32   21   41 1
    33   22   23 ar
    34   22   31 ar
    35   23   24 ar
    36   23   42 1
    37   24   25 ar
    38   24   46 1
    39   25   26 ar
    40   25   31 ar
    41   26   27 2
    42   26   28 ar
    43   27   43 1
    44   28   29 ar
    45   28   45 1
    46   29   30 ar
    47   29   44 1
    48   30   31 ar
@<TRIPOS>SUBSTRUCTURE
     1 ATP         1 GROUP 0 A     ****
@<TRIPOS>MOLECULE
[[[3,4-dihydroxy-5-(6-imino-7,8-dihydro-1~{H}-purin-8-ylium-9-yl)tetrahydrofuran-2-yl]methoxy-oxido-phosphoryl]oxy-hydroxy-phosphoryl] hydrogen phosphate
   46    48     1     0     0
SMALL
USER_CHARGES

@<TRIPOS>ATOM
      1 PG          3.6392   -3.7528   -7.1695 P.3       1 ATP         1.5595
      2 O1G         4.2949   -4.7249   -6.2141 O.co2     1 ATP        -0.8438
      3 O2G         4.4048   -3.1788   -8.3408 O.co2     1 ATP        -0.8438
      4 O3G         2.2619   -4.4268   -7.7307 O.3       1 ATP        -0.7800
      5 PB          3.6864   -1.3707   -5.4313 P.3       1 ATP         1.9223
      6 O1B         4.5266   -1.8567   -4.2875 O.2       1 ATP        -0.8953
      7 O2B         4.4715   -0.4793   -6.5280 O.3       1 ATP        -0.8165
      8 O3B         2.9840   -2.5301   -6.3118 O.3       1 ATP        -0.8247
      9 PA          2.3334    0.9635   -4.2388 P.3       1 ATP         1.6157
     10 O1A         0.8795    1.3118   -4.0046 O.co2     1 ATP        -0.8629
     11 O2A         3.2616    1.9407   -4.9268 O.co2     1 ATP        -0.8629
     12 O3A         2.4122   -0.4622   -5.0308 O.3       1 ATP        -0.8191
     13 O5'         3.0213    0.5153   -2.8245 O.3       1 ATP        -0.5644
     14 C5'         2.2816   -0.2918   -1.9206 C.3       1 ATP         0.2062
     15 C4'         2.7248    0.0226   -0.4980 C.3       1 ATP         0.0971
     16 O4'         2.4697    1.4219   -0.2462 O.3       1 ATP        -0.3662
     17 C3'         1.9404   -0.7419    0.5596 C.3       1 ATP         0.0734
     18 O3'         2.7418   -0.8086    1.7389 O.3       1 ATP        -0.5671
     19 C2'         0.7477    0.1630    0.7858 C.3       1 ATP         0.0745
     20 O2'         0.1373   -0.0577    2.0407 O.3       1 ATP        -0.5794
     21 C1'         1.3733    1.5427    0.6747 C.3       1 ATP         0.3824
     22 N9          0.4520    2.5240    0.1767 N.pl3     1 ATP        -0.4324
     23 C8          0.5691    3.2215   -0.9485 C.ar      1 ATP         0.2662
     24 N7         -0.4499    4.0551   -1.1342 N.pl3     1 ATP        -0.4772
     25 C5         -1.2618    3.8674   -0.0512 C.ar      1 ATP        -0.1305
     26 C6         -2.5420    4.5007    0.3120 C.ar      1 ATP         0.7186
     27 N6         -3.0874    5.3993   -0.4432 N.2       1 ATP        -0.8115
     28 N1         -3.0494    4.0205    1.5133 N.pl3     1 ATP        -0.8400
     29 C2         -2.3933    3.0527    2.2567 C.ar      1 ATP         0.6671
     30 N3         -1.2611    2.4796    1.9536 N.2       1 ATP        -0.5806
     31 C4         -0.7334    2.9358    0.7669 C.ar      1 ATP         0.2748
     32 HOG3        1.7175   -3.9155   -8.3665 H         1 ATP         0.4327
     33 HOB2        4.9001    0.3554   -6.2422 H         1 ATP         0.4701
     34 H5'1        1.2163   -0.0770   -2.0471 H         1 ATP         0.0401
     35 H5'2        2.4655   -1.3443   -2.1563 H         1 ATP         0.0401
     36 H4'         3.8044   -0.1397   -0.4040 H         1 ATP         0.1136
     37 H3'         1.6764   -1.7639    0.2728 H         1 ATP         0.0693
     38 HO3'        2.2232   -1.2979    2.3953 H         1 ATP         0.4124
     39 H2'        -0.0011    0.0027    0.0003 H         1 ATP         0.0854
     40 HO2'       -0.1563   -0.9855    2.0596 H         1 ATP         0.4367
     41 H1'         1.7826    1.9024    1.6451 H         1 ATP         0.1343
     42 H8          1.3912    3.1285   -1.6365 H         1 ATP         0.3302
     43 HN62       -3.9637    5.7084   -0.0142 H         1 ATP         0.4160
     44 H2         -2.9317    2.7866    3.1796 H         1 ATP         0.0756
     45 H45        -3.9307    4.3923    1.8559 H         1 ATP         0.4587
     46 H46        -0.5835    4.6857   -1.9122 H         1 ATP         0.5254
@<TRIPOS>BOND
     1    1    2 2
     2    1    3 1
     3    1    4 1
     4    1    8 1
     5    4   32 1
     6    5    6 2
     7    5    7 1
     8    5    8 1
     9    5   12 1
    10    7   33 1
    11    9   10 2
    12    9   11 1
    13    9   12 1
    14    9   13 1
    15   13   14 1
    16   14   15 1
    17   14   34 1
    18   14   35 1
    19   15   16 1
    20   15   17 1
    21   15   36 1
    22   16   21 1
    23   17   18 1
    24   17   19 1
    25   17   37 1
    26   18   38 1
    27   19   20 1
    28   19   21 1
    29   19   39 1
    30   20   40 1
    31   21   22 1
    32   21   41 1
    33   22   23 ar
    34   22   31 ar
    35   23   24 ar
    36   23   42 1
    37   24   25 ar
    38   24   46 1
    39   25   26 ar
    40   25   31 ar
    41   26   27 2
    42   26   28 ar
    43   27   43 1
    44   28   29 ar
    45   28   45 1
    46   29   30 ar
    47   29   44 1
    48   30   31 ar
@<TRIPOS>SUBSTRUCTURE
     1 ATP         1 GROUP 0 A     ****
@<TRIPOS>MOLECULE
[[[3,4-dihydroxy-5-(6-imino-7,8-dihydro-1~{H}-purin-8-ylium-9-yl)tetrahydrofuran-2-yl]methoxy-oxido-phosphoryl]oxy-hydroxy-phosphoryl] hydrogen phosphate
   46    48     1     0     0
SMALL
USER_CHARGES

@<TRIPOS>ATOM
      1 PG          2.4799    0.8050   -6.8511 P.3       1 ATP         1.5595
      2 O1G         1.1020    1.3915   -7.0629 O.co2     1 ATP        -0.8438
      3 O2G         3.6561    1.2642   -7.6838 O.co2     1 ATP        -0.8438
      4 O3G         2.8710    0.9571   -5.2731 O.3       1 ATP        -0.7800
      5 PB          1.4238   -1.8510   -6.1246 P.3       1 ATP         1.9223
      6 O1B        -0.0484   -1.6495   -6.3303 O.2       1 ATP        -0.8953
      7 O2B         1.9831   -3.3054   -6.5551 O.3       1 ATP        -0.8165
      8 O3B         2.3788   -0.8211   -6.9247 O.3       1 ATP        -0.8247
      9 PA          1.5543   -2.4556   -3.2404 P.3       1 ATP         1.6157
     10 O1A         2.0068   -3.8946   -3.3602 O.co2     1 ATP        -0.8629
     11 O2A         0.1179   -2.1223   -2.9006 O.co2     1 ATP        -0.8629
     12 O3A         1.9540   -1.6623   -4.6104 O.3       1 ATP        -0.8191
     13 O5'         2.5245   -1.6648   -2.1878 O.3       1 ATP        -0.5644
     14 C5'         2.2816   -0.2918   -1.9206 C.3       1 ATP         0.2062
     15 C4'         2.7248    0.0226   -0.4980 C.3       1 ATP         0.0971
     16 O4'         2.4697    1.4219   -0.2462 O.3       1 ATP        -0.3662
     17 C3'         1.9404   -0.7419    0.5596 C.3       1 ATP         0.0734
     18 O3'         2.7418   -0.8086    1.7389 O.3       1 ATP        -0.5671
     19 C2'         0.7477    0.1630    0.7858 C.3       1 ATP         0.0745
     20 O2'         0.1373   -0.0577    2.0407 O.3       1 ATP        -0.5794
     21 C1'         1.3733    1.5427    0.6747 C.3       1 ATP         0.3824
     22 N9          0.4520    2.5240    0.1767 N.pl3     1 ATP        -0.4324
     23 C8         -0.2004    2.4829   -0.9804 C.ar      1 ATP         0.2662
     24 N7         -0.9830    3.5431   -1.1568 N.pl3     1 ATP        -0.4772
     25 C5         -0.8095    4.3012   -0.0331 C.ar      1 ATP        -0.1305
     26 C6         -1.4065    5.5904    0.3585 C.ar      1 ATP         0.7186
     27 N6         -2.2501    6.2030   -0.4084 N.2       1 ATP        -0.8115
     28 N1         -0.9585    6.0272    1.5994 N.pl3     1 ATP        -0.8400
     29 C2         -0.0508    5.3009    2.3532 C.ar      1 ATP         0.6671
     30 N3          0.4890    4.1592    2.0257 N.2       1 ATP        -0.5806
     31 C4          0.0637    3.7006    0.7995 C.ar      1 ATP         0.2748
     32 HOG3        3.7426    0.6209   -4.9738 H         1 ATP         0.4327
     33 HOB2        1.6211   -4.1029   -6.1132 H         1 ATP         0.4701
     34 H5'1        2.8432    0.3119   -2.6398 H         1 ATP         0.0401
     35 H5'2        1.2128   -0.0927   -2.0428 H         1 ATP         0.0401
     36 H4'         3.8044   -0.1397   -0.4040 H         1 ATP         0.1136
     37 H3'         1.6764   -1.7639    0.2728 H         1 ATP         0.0693
     38 HO3'        2.2232   -1.2979    2.3953 H         1 ATP         0.4124
     39 H2'        -0.0011    0.0027    0.0003 H         1 ATP         0.0854
     40 HO2'       -0.1563   -0.9855    2.0596 H         1 ATP         0.4367
     41 H1'         1.7826    1.9024    1.6451 H         1 ATP         0.1343
     42 H8         -0.1116    1.6863   -1.6984 H         1 ATP         0.3302
     43 HN62       -2.5420    7.0730    0.0447 H         1 ATP         0.4160
     44 H2          0.1969    5.7893    3.3086 H         1 ATP         0.0756
     45 H45        -1.3097    6.9080    1.9642 H         1 ATP         0.4587
     46 H46        -1.5735    3.7351   -1.9538 H         1 ATP         0.5254
@<TRIPOS>BOND
     1    1    2 2
     2    1    3 1
     3    1    4 1
     4    1    8 1
     5    4   32 1
     6    5    6 2
     7    5    7 1
     8    5    8 1
     9    5   12 1
    10    7   33 1
    11    9   10 2
    12    9   11 1
    13    9   12 1
    14    9   13 1
    15   13   14 1
    16   14   15 1
    17   14   34 1
    18   14   35 1
    19   15   16 1
    20   15   17 1
    21   15   36 1
    22   16   21 1
    23   17   18 1
    24   17   19 1
    25   17   37 1
    26   18   38 1
    27   19   20 1
    28   19   21 1
    29   19   39 1
    30   20   40 1
    31   21   22 1
    32   21   41 1
    33   22   23 ar
    34   22   31 ar
    35   23   24 ar
    36   23   42 1
    37   24   25 ar
    38   24   46 1
    39   25   26 ar
    40   25   31 ar
    41   26   27 2
    42   26   28 ar
    43   27   43 1
    44   28   29 ar
    45   28   45 1
    46   29   30 ar
    47   29   44 1
    48   30   31 ar
@<TRIPOS>SUBSTRUCTURE
     1 ATP         1 GROUP 0 A     ****
@<TRIPOS>MOLECULE
[[[3,4-dihydroxy-5-(6-imino-7,8-dihydro-1~{H}-purin-8-ylium-9-yl)tetrahydrofuran-2-yl]methoxy-oxido-phosphoryl]oxy-hydroxy-phosphoryl] hydrogen phosphate
   46    48     1     0     0
SMALL
USER_CHARGES

@<TRIPOS>ATOM
      1 PG         -3.3584   -3.3204   -2.5446 P.3       1 ATP         1.5595
      2 O1G        -4.4014   -2.8266   -3.5225 O.co2     1 ATP        -0.8438
      3 O2G        -3.5187   -3.0943   -1.0578 O.co2     1 ATP        -0.8438
      4 O3G        -3.1188   -4.9147   -2.8037 O.3       1 ATP        -0.7800
      5 PB         -0.4192   -3.1020   -2.4410 P.3       1 ATP         1.9223
      6 O1B        -0.1995   -2.7581   -0.9975 O.2       1 ATP        -0.8953
      7 O2B        -0.2038   -4.6601   -2.8147 O.3       1 ATP        -0.8165
      8 O3B        -1.8951   -2.7718   -3.0114 O.3       1 ATP        -0.8247
      9 PA          2.1371   -2.2715   -3.6563 P.3       1 ATP         1.6157
     10 O1A         2.4976   -1.2664   -4.7285 O.co2     1 ATP        -0.8629
     11 O2A         2.6455   -3.6950   -3.7283 O.co2     1 ATP        -0.8629
     12 O3A         0.5123   -2.3150   -3.5004 O.3       1 ATP        -0.8191
     13 O5'         2.5245   -1.6648   -2.1878 O.3       1 ATP        -0.5644
     14 C5'         2.2816   -0.2918   -1.9206 C.3       1 ATP         0.2062
     15 C4'         2.7248    0.0226   -0.4980 C.3       1 ATP         0.0971
     16 O4'         2.4697    1.4219   -0.2462 O.3       1 ATP        -0.3662
     17 C3'         1.9404   -0.7419    0.5596 C.3       1 ATP         0.0734
     18 O3'         2.7418   -0.8086    1.7389 O.3       1 ATP        -0.5671
     19 C2'         0.7477    0.1630    0.7858 C.3       1 ATP         0.0745
     20 O2'         0.1373   -0.0577    2.0407 O.3       1 ATP        -0.5794
     21 C1'         1.3733    1.5427    0.6747 C.3       1 ATP         0.3824
     22 N9          0.4520    2.5240    0.1767 N.pl3     1 ATP        -0.4324
     23 C8          0.2216    2.8192   -1.0985 C.ar      1 ATP         0.2662
     24 N7         -0.6906    3.7763   -1.2384 N.pl3     1 ATP        -0.4772
     25 C5         -1.0575    4.1037    0.0366 C.ar      1 ATP        -0.1305
     26 C6         -2.0291    5.0943    0.5330 C.ar      1 ATP         0.7186
     27 N6         -2.7093    5.8371   -0.2800 N.2       1 ATP        -0.8115
     28 N1         -2.1051    5.1136    1.9204 N.pl3     1 ATP        -0.8400
     29 C2         -1.3354    4.2774    2.7129 C.ar      1 ATP         0.6671
     30 N3         -0.4707    3.3945    2.2944 N.2       1 ATP        -0.5806
     31 C4         -0.3734    3.3525    0.9220 C.ar      1 ATP         0.2748
     32 HOG3       -2.4653   -5.3854   -2.2437 H         1 ATP         0.4327
     33 HOB2       -0.3329   -4.9475   -3.7437 H         1 ATP         0.4701
     34 H5'1        2.8432    0.3119   -2.6398 H         1 ATP         0.0401
     35 H5'2        1.2128   -0.0927   -2.0428 H         1 ATP         0.0401
     36 H4'         3.8044   -0.1397   -0.4040 H         1 ATP         0.1136
     37 H3'         1.6764   -1.7639    0.2728 H         1 ATP         0.0693
     38 HO3'        2.2232   -1.2979    2.3953 H         1 ATP         0.4124
     39 H2'        -0.0011    0.0027    0.0003 H         1 ATP         0.0854
     40 HO2'       -0.1563   -0.9855    2.0596 H         1 ATP         0.4367
     41 H1'         1.7826    1.9024    1.6451 H         1 ATP         0.1343
     42 H8          0.7125    2.3429   -1.9292 H         1 ATP         0.3302
     43 HN62       -3.3217    6.4517    0.2629 H         1 ATP         0.4160
     44 H2         -1.5188    4.4223    3.7890 H         1 ATP         0.0756
     45 H45        -2.7470    5.7627    2.3665 H         1 ATP         0.4587
     46 H46        -1.0305    4.1680   -2.1054 H         1 ATP         0.5254
@<TRIPOS>BOND
     1    1    2 2
     2    1    3 1
     3    1    4 1
     4    1    8 1
     5    4   32 1
     6    5    6 2
     7    5    7 1
     8    5    8 1
     9    5   12 1
    10    7   33 1
    11    9   10 2
    12    9   11 1
    13    9   12 1
    14    9   13 1
    15   13   14 1
    16   14   15 1
    17   14   34 1
    18   14   35 1
    19   15   16 1
    20   15   17 1
    21   15   36 1
    22   16   21 1
    23   17   18 1
    24   17   19 1
    25   17   37 1
    26   18   38 1
    27   19   20 1
    28   19   21 1
    29   19   39 1
    30   20   40 1
    31   21   22 1
    32   21   41 1
    33   22   23 ar
    34   22   31 ar
    35   23   24 ar
    36   23   42 1
    37   24   25 ar
    38   24   46 1
    39   25   26 ar
    40   25   31 ar
    41   26   27 2
    42   26   28 ar
    43   27   43 1
    44   28   29 ar
    45   28   45 1
    46   29   30 ar
    47   29   44 1
    48   30   31 ar
@<TRIPOS>SUBSTRUCTURE
     1 ATP         1 GROUP 0 A     ****
@<TRIPOS>MOLECULE
[[[3,4-dihydroxy-5-(6-imino-7,8-dihydro-1~{H}-purin-8-ylium-9-yl)tetrahydrofuran-2-yl]methoxy-oxido-phosphoryl]oxy-hydroxy-phosphoryl] hydrogen phosphate
   46    48     1     0     0
SMALL
USER_CHARGES

@<TRIPOS>ATOM
      1 PG          0.2544   -7.0157   -3.4263 P.3       1 ATP         1.5595
      2 O1G         1.4800   -7.8948   -3.5396 O.co2     1 ATP        -0.8438
      3 O2G        -0.7939   -7.0001   -4.5164 O.co2     1 ATP        -0.8438
      4 O3G        -0.4816   -7.3334   -2.0038 O.3       1 ATP        -0.7800
      5 PB         -0.1384   -4.1692   -2.7623 P.3       1 ATP         1.9223
      6 O1B        -1.1405   -3.7595   -3.8007 O.2       1 ATP        -0.8953
      7 O2B        -0.7575   -4.5048   -1.3071 O.3       1 ATP        -0.8165
      8 O3B         0.7286   -5.4851   -3.1224 O.3       1 ATP        -0.8247
      9 PA          2.1631   -2.4497   -3.4314 P.3       1 ATP         1.6157
     10 O1A         1.4759   -1.5969   -4.4756 O.co2     1 ATP        -0.8629
     11 O2A         3.1219   -3.5474   -3.8381 O.co2     1 ATP        -0.8629
     12 O3A         1.0291   -3.0970   -2.4510 O.3       1 ATP        -0.8191
     13 O5'         2.9216   -1.4836   -2.3516 O.3       1 ATP        -0.5644
     14 C5'         2.2816   -0.2918   -1.9206 C.3       1 ATP         0.2062
     15 C4'         2.7248    0.0226   -0.4980 C.3       1 ATP         0.0971
     16 O4'         2.4697    1.4219   -0.2462 O.3       1 ATP        -0.3662
     17 C3'         1.9404   -0.7419    0.5596 C.3       1 ATP         0.0734
     18 O3'         2.7418   -0.8086    1.7389 O.3       1 ATP        -0.5671
     19 C2'         0.7477    0.1630    0.7858 C.3       1 ATP         0.0745
     20 O2'         0.1373   -0.0577    2.0407 O.3       1 ATP        -0.5794
     21 C1'         1.3733    1.5427    0.6747 C.3       1 ATP         0.3824
     22 N9          0.4520    2.5240    0.1767 N.pl3     1 ATP        -0.4324
     23 C8         -0.2004    2.4829   -0.9804 C.ar      1 ATP         0.2662
     24 N7         -0.9830    3.5431   -1.1568 N.pl3     1 ATP        -0.4772
     25 C5         -0.8095    4.3012   -0.0331 C.ar      1 ATP        -0.1305
     26 C6         -1.4065    5.5904    0.3585 C.ar      1 ATP         0.7186
     27 N6         -2.2501    6.2030   -0.4084 N.2       1 ATP        -0.8115
     28 N1         -0.9585    6.0272    1.5994 N.pl3     1 ATP        -0.8400
     29 C2         -0.0508    5.3009    2.3532 C.ar      1 ATP         0.6671
     30 N3          0.4890    4.1592    2.0257 N.2       1 ATP        -0.5806
     31 C4          0.0637    3.7006    0.7995 C.ar      1 ATP         0.2748
     32 HOG3       -1.2991   -6.8392   -1.7807 H         1 ATP         0.4327
     33 HOB2       -1.2490   -3.8043   -0.8275 H         1 ATP         0.4701
     34 H5'1        2.5589    0.5217   -2.5976 H         1 ATP         0.0401
     35 H5'2        1.1982   -0.4388   -1.9617 H         1 ATP         0.0401
     36 H4'         3.8044   -0.1397   -0.4040 H         1 ATP         0.1136
     37 H3'         1.6764   -1.7639    0.2728 H         1 ATP         0.0693
     38 HO3'        2.2232   -1.2979    2.3953 H         1 ATP         0.4124
     39 H2'        -0.0011    0.0027    0.0003 H         1 ATP         0.0854
     40 HO2'       -0.6141    0.5574    2.1082 H         1 ATP         0.4367
     41 H1'         1.7826    1.9024    1.6451 H         1 ATP         0.1343
     42 H8         -0.1116    1.6863   -1.6984 H         1 ATP         0.3302
     43 HN62       -2.5420    7.0730    0.0447 H         1 ATP         0.4160
     44 H2          0.1969    5.7893    3.3086 H         1 ATP         0.0756
     45 H45        -1.3097    6.9080    1.9642 H         1 ATP         0.4587
     46 H46        -1.5735    3.7351   -1.9538 H         1 ATP         0.5254
@<TRIPOS>BOND
     1    1    2 2
     2    1    3 1
     3    1    4 1
     4    1    8 1
     5    4   32 1
     6    5    6 2
     7    5    7 1
     8    5    8 1
     9    5   12 1
    10    7   33 1
    11    9   10 2
    12    9   11 1
    13    9   12 1
    14    9   13 1
    15   13   14 1
    16   14   15 1
    17   14   34 1
    18   14   35 1
    19   15   16 1
    20   15   17 1
    21   15   36 1
    22   16   21 1
    23   17   18 1
    24   17   19 1
    25   17   37 1
    26   18   38 1
    27   19   20 1
    28   19   21 1
    29   19   39 1
    30   20   40 1
    31   21   22 1
    32   21   41 1
    33   22   23 ar
    34   22   31 ar
    35   23   24 ar
    36   23   42 1
    37   24   25 ar
    38   24   46 1
    39   25   26 ar
    40   25   31 ar
    41   26   27 2
    42   26   28 ar
    43   27   43 1
    44   28   29 ar
    45   28   45 1
    46   29   30 ar
    47   29   44 1
    48   30   31 ar
@<TRIPOS>SUBSTRUCTURE
     1 ATP         1 GROUP 0 A     ****
@<TRIPOS>MOLECULE
[[[3,4-dihydroxy-5-(6-imino-7,8-dihydro-1~{H}-purin-8-ylium-9-yl)tetrahydrofuran-2-yl]methoxy-oxido-phosphoryl]oxy-hydroxy-phosphoryl] hydrogen phosphate
   46    48     1     0     0
SMALL
USER_CHARGES

@<TRIPOS>ATOM
      1 PG         -6.4189   -5.4570    0.9206 P.3       1 ATP         1.5595
      2 O1G        -6.9631   -6.7956    0.4737 O.co2     1 ATP        -0.8438
      3 O2G        -6.1416   -4.3577   -0.0804 O.co2     1 ATP        -0.8438
      4 O3G        -7.3968   -4.8629    2.0855 O.3       1 ATP        -0.7800
      5 PB         -3.6321   -6.2878    1.4121 P.3       1 ATP         1.9223
      6 O1B        -3.6369   -7.6808    0.8554 O.2       1 ATP        -0.8953
      7 O2B        -3.0300   -5.1575    0.4254 O.3       1 ATP        -0.8165
      8 O3B        -5.0827   -5.7046    1.8225 O.3       1 ATP        -0.8247
      9 PA         -1.2302   -6.3289    3.1239 P.3       1 ATP         1.6157
     10 O1A        -0.8645   -7.7466    2.7414 O.co2     1 ATP        -0.8629
     11 O2A        -0.9559   -5.8088    4.5182 O.co2     1 ATP        -0.8629
     12 O3A        -2.8089   -6.0834    2.7868 O.3       1 ATP        -0.8191
     13 O5'        -0.5687   -5.2869    2.0510 O.3       1 ATP        -0.5644
     14 C5'        -0.7840   -3.8935    2.2172 C.3       1 ATP         0.2062
     15 C4'        -0.0724   -3.1466    1.1027 C.3       1 ATP         0.0971
     16 O4'        -0.8674   -3.1929   -0.0945 O.3       1 ATP        -0.3662
     17 C3'         0.1338   -1.6715    1.4027 C.3       1 ATP         0.0734
     18 O3'         1.2893   -1.4445    2.1808 O.3       1 ATP        -0.5671
     19 C2'         0.2158   -1.0724    0.0128 C.3       1 ATP         0.0745
     20 O2'         1.5141   -1.2448   -0.5513 O.3       1 ATP        -0.5794
     21 C1'        -0.7897   -1.9176   -0.7583 C.3       1 ATP         0.3824
     22 N9         -2.1040   -1.3333   -0.7704 N.pl3     1 ATP        -0.4324
     23 C8         -3.0590   -1.5123    0.1363 C.ar      1 ATP         0.2662
     24 N7         -4.1655   -0.8354   -0.1554 N.pl3     1 ATP        -0.4772
     25 C5         -3.8852   -0.1874   -1.3253 C.ar      1 ATP        -0.1305
     26 C6         -4.7113    0.7160   -2.1458 C.ar      1 ATP         0.7186
     27 N6         -5.9213    1.0209   -1.8021 N.2       1 ATP        -0.8115
     28 N1         -4.0411    1.1673   -3.2764 N.pl3     1 ATP        -0.8400
     29 C2         -2.7403    0.7865   -3.5638 C.ar      1 ATP         0.6671
     30 N3         -1.9921   -0.0108   -2.8519 N.2       1 ATP        -0.5806
     31 C4         -2.6302   -0.4747   -1.7239 C.ar      1 ATP         0.2748
     32 HOG3       -7.1760   -3.9929    2.4813 H         1 ATP         0.4327
     33 HOB2       -2.1017   -5.2405    0.1194 H         1 ATP         0.4701
     34 H5'1       -1.8598   -3.6968    2.1850 H         1 ATP         0.0401
     35 H5'2       -0.3933   -3.5903    3.1931 H         1 ATP         0.0401
     36 H4'         0.8874   -3.6466    0.8805 H         1 ATP         0.1136
     37 H3'        -0.7376   -1.2333    1.9867 H         1 ATP         0.0693
     38 HO3'        1.3408   -0.4870    2.3219 H         1 ATP         0.4124
     39 H2'        -0.0384   -0.0310    0.0096 H         1 ATP         0.0854
     40 HO2'        2.1463   -0.7958    0.0370 H         1 ATP         0.4367
     41 H1'        -0.4769   -2.1002   -1.8093 H         1 ATP         0.1343
     42 H8         -2.9569   -2.1323    1.0098 H         1 ATP         0.3302
     43 HN62       -6.3169    1.6552   -2.5012 H         1 ATP         0.4160
     44 H2         -2.3612    1.2343   -4.4957 H         1 ATP         0.0756
     45 H45        -4.5223    1.7976   -3.9117 H         1 ATP         0.4587
     46 H46        -5.0218   -0.8132    0.3804 H         1 ATP         0.5254
@<TRIPOS>BOND
     1    1    2 2
     2    1    3 1
     3    1    4 1
     4    1    8 1
     5    4   32 1
     6    5    6 2
     7    5    7 1
     8    5    8 1
     9    5   12 1
    10    7   33 1
    11    9   10 2
    12    9   11 1
    13    9   12 1
    14    9   13 1
    15   13   14 1
    16   14   15 1
    17   14   34 1
    18   14   35 1
    19   15   16 1
    20   15   17 1
    21   15   36 1
    22   16   21 1
    23   17   18 1
    24   17   19 1
    25   17   37 1
    26   18   38 1
    27   19   20 1
    28   19   21 1
    29   19   39 1
    30   20   40 1
    31   21   22 1
    32   21   41 1
    33   22   23 ar
    34   22   31 ar
    35   23   24 ar
    36   23   42 1
    37   24   25 ar
    38   24   46 1
    39   25   26 ar
    40   25   31 ar
    41   26   27 2
    42   26   28 ar
    43   27   43 1
    44   28   29 ar
    45   28   45 1
    46   29   30 ar
    47   29   44 1
    48   30   31 ar
@<TRIPOS>SUBSTRUCTURE
     1 ATP         1 GROUP 0 A     ****
@<TRIPOS>MOLECULE
[[[3,4-dihydroxy-5-(6-imino-7,8-dihydro-1~{H}-purin-8-ylium-9-yl)tetrahydrofuran-2-yl]methoxy-oxido-phosphoryl]oxy-hydroxy-phosphoryl] hydrogen phosphate
   46    48     1     0     0
SMALL
USER_CHARGES

@<TRIPOS>ATOM
      1 PG         -1.8188   -0.3182   -6.7108 P.3       1 ATP         1.5595
      2 O1G        -2.6387    0.9427   -6.5504 O.co2     1 ATP        -0.8438
      3 O2G        -2.4239   -1.6779   -6.4417 O.co2     1 ATP        -0.8438
      4 O3G        -1.1696   -0.3270   -8.2090 O.3       1 ATP        -0.7800
      5 PB          0.6798    0.9946   -5.8556 P.3       1 ATP         1.9223
      6 O1B         1.3643    1.2125   -7.1725 O.2       1 ATP        -0.8953
      7 O2B        -0.0975    2.2835   -5.2658 O.3       1 ATP        -0.8165
      8 O3B        -0.4437   -0.1675   -5.8468 O.3       1 ATP        -0.8247
      9 PA          2.9230    1.2546   -3.9578 P.3       1 ATP         1.6157
     10 O1A         2.4619    2.5263   -3.2796 O.co2     1 ATP        -0.8629
     11 O2A         4.0434    1.2827   -4.9744 O.co2     1 ATP        -0.8629
     12 O3A         1.6316    0.5231   -4.6386 O.3       1 ATP        -0.8191
     13 O5'         3.2903    0.1346   -2.8241 O.3       1 ATP        -0.5644
     14 C5'         2.2816   -0.2918   -1.9206 C.3       1 ATP         0.2062
     15 C4'         2.7248    0.0226   -0.4980 C.3       1 ATP         0.0971
     16 O4'         2.4697    1.4219   -0.2462 O.3       1 ATP        -0.3662
     17 C3'         1.9404   -0.7419    0.5596 C.3       1 ATP         0.0734
     18 O3'         2.7418   -0.8086    1.7389 O.3       1 ATP        -0.5671
     19 C2'         0.7477    0.1630    0.7858 C.3       1 ATP         0.0745
     20 O2'         0.1373   -0.0577    2.0407 O.3       1 ATP        -0.5794
     21 C1'         1.3733    1.5427    0.6747 C.3       1 ATP         0.3824
     22 N9          0.4520    2.5240    0.1767 N.pl3     1 ATP        -0.4324
     23 C8         -0.2004    2.4829   -0.9804 C.ar      1 ATP         0.2662
     24 N7         -0.9830    3.5431   -1.1568 N.pl3     1 ATP        -0.4772
     25 C5         -0.8095    4.3012   -0.0331 C.ar      1 ATP        -0.1305
     26 C6         -1.4065    5.5904    0.3585 C.ar      1 ATP         0.7186
     27 N6         -2.2501    6.2030   -0.4084 N.2       1 ATP        -0.8115
     28 N1         -0.9585    6.0272    1.5994 N.pl3     1 ATP        -0.8400
     29 C2         -0.0508    5.3009    2.3532 C.ar      1 ATP         0.6671
     30 N3          0.4890    4.1592    2.0257 N.2       1 ATP        -0.5806
     31 C4          0.0637    3.7006    0.7995 C.ar      1 ATP         0.2748
     32 HOG3       -0.6056   -1.0864   -8.4688 H         1 ATP         0.4327
     33 HOB2        0.4121    3.1007   -5.0794 H         1 ATP         0.4701
     34 H5'1        1.3514    0.2330   -2.1577 H         1 ATP         0.0401
     35 H5'2        2.1280   -1.3678   -2.0460 H         1 ATP         0.0401
     36 H4'         3.8044   -0.1397   -0.4040 H         1 ATP         0.1136
     37 H3'         1.6764   -1.7639    0.2728 H         1 ATP         0.0693
     38 HO3'        3.5554   -1.2733    1.4914 H         1 ATP         0.4124
     39 H2'        -0.0011    0.0027    0.0003 H         1 ATP         0.0854
     40 HO2'       -0.1563   -0.9855    2.0596 H         1 ATP         0.4367
     41 H1'         1.7826    1.9024    1.6451 H         1 ATP         0.1343
     42 H8         -0.1116    1.6863   -1.6984 H         1 ATP         0.3302
     43 HN62       -2.5420    7.0730    0.0447 H         1 ATP         0.4160
     44 H2          0.1969    5.7893    3.3086 H         1 ATP         0.0756
     45 H45        -1.3097    6.9080    1.9642 H         1 ATP         0.4587
     46 H46        -1.5735    3.7351   -1.9538 H         1 ATP         0.5254
@<TRIPOS>BOND
     1    1    2 2
     2    1    3 1
     3    1    4 1
     4    1    8 1
     5    4   32 1
     6    5    6 2
     7    5    7 1
     8    5    8 1
     9    5   12 1
    10    7   33 1
    11    9   10 2
    12    9   11 1
    13    9   12 1
    14    9   13 1
    15   13   14 1
    16   14   15 1
    17   14   34 1
    18   14   35 1
    19   15   16 1
    20   15   17 1
    21   15   36 1
    22   16   21 1
    23   17   18 1
    24   17   19 1
    25   17   37 1
    26   18   38 1
    27   19   20 1
    28   19   21 1
    29   19   39 1
    30   20   40 1
    31   21   22 1
    32   21   41 1
    33   22   23 ar
    34   22   31 ar
    35   23   24 ar
    36   23   42 1
    37   24   25 ar
    38   24   46 1
    39   25   26 ar
    40   25   31 ar
    41   26   27 2
    42   26   28 ar
    43   27   43 1
    44   28   29 ar
    45   28   45 1
    46   29   30 ar
    47   29   44 1
    48   30   31 ar
@<TRIPOS>SUBSTRUCTURE
     1 ATP         1 GROUP 0 A     ****
@<TRIPOS>MOLECULE
[[[3,4-dihydroxy-5-(6-imino-7,8-dihydro-1~{H}-purin-8-ylium-9-yl)tetrahydrofuran-2-yl]methoxy-oxido-phosphoryl]oxy-hydroxy-phosphoryl] hydrogen phosphate
   46    48     1     0     0
SMALL
USER_CHARGES

@<TRIPOS>ATOM
      1 PG          3.9354   -3.8940   -7.7951 P.3       1 ATP         1.5595
      2 O1G         3.9618   -5.3722   -7.4759 O.co2     1 ATP        -0.8438
      3 O2G         5.0470   -3.2518   -8.5948 O.co2     1 ATP        -0.8438
      4 O3G         2.5113   -3.5442   -8.5133 O.3       1 ATP        -0.7800
      5 PB          3.4742   -1.4806   -6.1639 P.3       1 ATP         1.9223
      6 O1B         4.5598   -0.5743   -6.6642 O.2       1 ATP        -0.8953
      7 O2B         2.0137   -1.2202   -6.8063 O.3       1 ATP        -0.8165
      8 O3B         3.7253   -3.0583   -6.4103 O.3       1 ATP        -0.8247
      9 PA          2.1371   -2.2715   -3.6563 P.3       1 ATP         1.6157
     10 O1A         2.4857   -3.7434   -3.7019 O.co2     1 ATP        -0.8629
     11 O2A         0.7457   -1.7949   -4.0121 O.co2     1 ATP        -0.8629
     12 O3A         3.2103   -1.4478   -4.5705 O.3       1 ATP        -0.8191
     13 O5'         2.5245   -1.6648   -2.1878 O.3       1 ATP        -0.5644
     14 C5'         2.2816   -0.2918   -1.9206 C.3       1 ATP         0.2062
     15 C4'         2.7248    0.0226   -0.4980 C.3       1 ATP         0.0971
     16 O4'         2.4697    1.4219   -0.2462 O.3       1 ATP        -0.3662
     17 C3'         1.9404   -0.7419    0.5596 C.3       1 ATP         0.0734
     18 O3'         2.7418   -0.8086    1.7389 O.3       1 ATP        -0.5671
     19 C2'         0.7477    0.1630    0.7858 C.3       1 ATP         0.0745
     20 O2'         0.1373   -0.0577    2.0407 O.3       1 ATP        -0.5794
     21 C1'         1.3733    1.5427    0.6747 C.3       1 ATP         0.3824
     22 N9          0.4520    2.5240    0.1767 N.pl3     1 ATP        -0.4324
     23 C8         -0.2004    2.4829   -0.9804 C.ar      1 ATP         0.2662
     24 N7         -0.9830    3.5431   -1.1568 N.pl3     1 ATP        -0.4772
     25 C5         -0.8095    4.3012   -0.0331 C.ar      1 ATP        -0.1305
     26 C6         -1.4065    5.5904    0.3585 C.ar      1 ATP         0.7186
     27 N6         -2.2501    6.2030   -0.4084 N.2       1 ATP        -0.8115
     28 N1         -0.9585    6.0272    1.5994 N.pl3     1 ATP        -0.8400
     29 C2         -0.0508    5.3009    2.3532 C.ar      1 ATP         0.6671
     30 N3          0.4890    4.1592    2.0257 N.2       1 ATP        -0.5806
     31 C4          0.0637    3.7006    0.7995 C.ar      1 ATP         0.2748
     32 HOG3        2.3403   -2.6169   -8.7836 H         1 ATP         0.4327
     33 HOB2        1.5935   -0.3416   -6.6890 H         1 ATP         0.4701
     34 H5'1        2.8432    0.3119   -2.6398 H         1 ATP         0.0401
     35 H5'2        1.2128   -0.0927   -2.0428 H         1 ATP         0.0401
     36 H4'         3.8044   -0.1397   -0.4040 H         1 ATP         0.1136
     37 H3'         1.6764   -1.7639    0.2728 H         1 ATP         0.0693
     38 HO3'        2.2232   -1.2979    2.3953 H         1 ATP         0.4124
     39 H2'        -0.0011    0.0027    0.0003 H         1 ATP         0.0854
     40 HO2'       -0.1563   -0.9855    2.0596 H         1 ATP         0.4367
     41 H1'         1.7826    1.9024    1.6451 H         1 ATP         0.1343
     42 H8         -0.1116    1.6863   -1.6984 H         1 ATP         0.3302
     43 HN62       -2.5420    7.0730    0.0447 H         1 ATP         0.4160
     44 H2          0.1969    5.7893    3.3086 H         1 ATP         0.0756
     45 H45        -1.3097    6.9080    1.9642 H         1 ATP         0.4587
     46 H46        -1.5735    3.7351   -1.9538 H         1 ATP         0.5254
@<TRIPOS>BOND
     1    1    2 2
     2    1    3 1
     3    1    4 1
     4    1    8 1
     5    4   32 1
     6    5    6 2
     7    5    7 1
     8    5    8 1
     9    5   12 1
    10    7   33 1
    11    9   10 2
    12    9   11 1
    13    9   12 1
    14    9   13 1
    15   13   14 1
    16   14   15 1
    17   14   34 1
    18   14   35 1
    19   15   16 1
    20   15   17 1
    21   15   36 1
    22   16   21 1
    23   17   18 1
    24   17   19 1
    25   17   37 1
    26   18   38 1
    27   19   20 1
    28   19   21 1
    29   19   39 1
    30   20   40 1
    31   21   22 1
    32   21   41 1
    33   22   23 ar
    34   22   31 ar
    35   23   24 ar
    36   23   42 1
    37   24   25 ar
    38   24   46 1
    39   25   26 ar
    40   25   31 ar
    41   26   27 2
    42   26   28 ar
    43   27   43 1
    44   28   29 ar
    45   28   45 1
    46   29   30 ar
    47   29   44 1
    48   30   31 ar
@<TRIPOS>SUBSTRUCTURE
     1 ATP         1 GROUP 0 A     ****
@<TRIPOS>MOLECULE
[[[3,4-dihydroxy-5-(6-imino-7,8-dihydro-1~{H}-purin-8-ylium-9-yl)tetrahydrofuran-2-yl]methoxy-oxido-phosphoryl]oxy-hydroxy-phosphoryl] hydrogen phosphate
   46    48     1     0     0
SMALL
USER_CHARGES

@<TRIPOS>ATOM
      1 PG          4.5290   -5.6575   -4.6458 P.3       1 ATP         1.5595
      2 O1G         4.4646   -6.7635   -3.6161 O.co2     1 ATP        -0.8438
      3 O2G         5.6981   -5.5510   -5.5994 O.co2     1 ATP        -0.8438
      4 O3G         3.1489   -5.6804   -5.5180 O.3       1 ATP        -0.7800
      5 PB          5.2647   -3.4496   -2.8342 P.3       1 ATP         1.9223
      6 O1B         5.5377   -4.1921   -1.5597 O.2       1 ATP        -0.8953
      7 O2B         6.5764   -3.0637   -3.6969 O.3       1 ATP        -0.8165
      8 O3B         4.3228   -4.2243   -3.8951 O.3       1 ATP        -0.8247
      9 PA          4.0008   -0.9665   -3.8026 P.3       1 ATP         1.6157
     10 O1A         2.9520   -1.6091   -4.6841 O.co2     1 ATP        -0.8629
     11 O2A         5.2365   -0.3346   -4.4057 O.co2     1 ATP        -0.8629
     12 O3A         4.4765   -2.0485   -2.6761 O.3       1 ATP        -0.8191
     13 O5'         3.2903    0.1346   -2.8241 O.3       1 ATP        -0.5644
     14 C5'         2.2816   -0.2918   -1.9206 C.3       1 ATP         0.2062
     15 C4'         2.7248    0.0226   -0.4980 C.3       1 ATP         0.0971
     16 O4'         2.4697    1.4219   -0.2462 O.3       1 ATP        -0.3662
     17 C3'         1.9404   -0.7419    0.5596 C.3       1 ATP         0.0734
     18 O3'         2.7418   -0.8086    1.7389 O.3       1 ATP        -0.5671
     19 C2'         0.7477    0.1630    0.7858 C.3       1 ATP         0.0745
     20 O2'         0.1373   -0.0577    2.0407 O.3       1 ATP        -0.5794
     21 C1'         1.3733    1.5427    0.6747 C.3       1 ATP         0.3824
     22 N9          0.4520    2.5240    0.1767 N.pl3     1 ATP        -0.4324
     23 C8          0.2216    2.8192   -1.0985 C.ar      1 ATP         0.2662
     24 N7         -0.6906    3.7763   -1.2384 N.pl3     1 ATP        -0.4772
     25 C5         -1.0575    4.1037    0.0366 C.ar      1 ATP        -0.1305
     26 C6         -2.0291    5.0943    0.5330 C.ar      1 ATP         0.7186
     27 N6         -2.7093    5.8371   -0.2800 N.2       1 ATP        -0.8115
     28 N1         -2.1051    5.1136    1.9204 N.pl3     1 ATP        -0.8400
     29 C2         -1.3354    4.2774    2.7129 C.ar      1 ATP         0.6671
     30 N3         -0.4707    3.3945    2.2944 N.2       1 ATP        -0.5806
     31 C4         -0.3734    3.3525    0.9220 C.ar      1 ATP         0.2748
     32 HOG3        3.0373   -5.0176   -6.2325 H         1 ATP         0.4327
     33 HOB2        7.1603   -3.7827   -4.0200 H         1 ATP         0.4701
     34 H5'1        1.3514    0.2330   -2.1577 H         1 ATP         0.0401
     35 H5'2        2.1280   -1.3678   -2.0460 H         1 ATP         0.0401
     36 H4'         3.8044   -0.1397   -0.4040 H         1 ATP         0.1136
     37 H3'         1.6764   -1.7639    0.2728 H         1 ATP         0.0693
     38 HO3'        3.5554   -1.2733    1.4914 H         1 ATP         0.4124
     39 H2'        -0.0011    0.0027    0.0003 H         1 ATP         0.0854
     40 HO2'       -0.6141    0.5574    2.1082 H         1 ATP         0.4367
     41 H1'         1.7826    1.9024    1.6451 H         1 ATP         0.1343
     42 H8          0.7125    2.3429   -1.9292 H         1 ATP         0.3302
     43 HN62       -3.3217    6.4517    0.2629 H         1 ATP         0.4160
     44 H2         -1.5188    4.4223    3.7890 H         1 ATP         0.0756
     45 H45        -2.7470    5.7627    2.3665 H         1 ATP         0.4587
     46 H46        -1.0305    4.1680   -2.1054 H         1 ATP         0.5254
@<TRIPOS>BOND
     1    1    2 2
     2    1    3 1
     3    1    4 1
     4    1    8 1
     5    4   32 1
     6    5    6 2
     7    5    7 1
     8    5    8 1
     9    5   12 1
    10    7   33 1
    11    9   10 2
    12    9   11 1
    13    9   12 1
    14    9   13 1
    15   13   14 1
    16   14   15 1
    17   14   34 1
    18   14   35 1
    19   15   16 1
    20   15   17 1
    21   15   36 1
    22   16   21 1
    23   17   18 1
    24   17   19 1
    25   17   37 1
    26   18   38 1
    27   19   20 1
    28   19   21 1
    29   19   39 1
    30   20   40 1
    31   21   22 1
    32   21   41 1
    33   22   23 ar
    34   22   31 ar
    35   23   24 ar
    36   23   42 1
    37   24   25 ar
    38   24   46 1
    39   25   26 ar
    40   25   31 ar
    41   26   27 2
    42   26   28 ar
    43   27   43 1
    44   28   29 ar
    45   28   45 1
    46   29   30 ar
    47   29   44 1
    48   30   31 ar
@<TRIPOS>SUBSTRUCTURE
     1 ATP         1 GROUP 0 A     ****
@<TRIPOS>MOLECULE
[[[3,4-dihydroxy-5-(6-imino-7,8-dihydro-1~{H}-purin-8-ylium-9-yl)tetrahydrofuran-2-yl]methoxy-oxido-phosphoryl]oxy-hydroxy-phosphoryl] hydrogen phosphate
   46    48     1     0     0
SMALL
USER_CHARGES

@<TRIPOS>ATOM
      1 PG         -0.8065   -0.5266   -7.4773 P.3       1 ATP         1.5595
      2 O1G        -1.9860    0.4151   -7.3784 O.co2     1 ATP        -0.8438
      3 O2G        -1.0061   -2.0257   -7.4657 O.co2     1 ATP        -0.8438
      4 O3G         0.0640   -0.1297   -8.8006 O.3       1 ATP        -0.7800
      5 PB          0.9862    1.2917   -6.0016 P.3       1 ATP         1.9223
      6 O1B         1.7893    1.8865   -7.1204 O.2       1 ATP        -0.8953
      7 O2B        -0.2364    2.2080   -5.4732 O.3       1 ATP        -0.8165
      8 O3B         0.2859   -0.1266   -6.3342 O.3       1 ATP        -0.8247
      9 PA          3.0673   -0.0858   -4.4292 P.3       1 ATP         1.6157
     10 O1A         4.2678    0.4442   -5.1827 O.co2     1 ATP        -0.8629
     11 O2A         2.5799   -1.5015   -4.6484 O.co2     1 ATP        -0.8629
     12 O3A         1.8103    0.9304   -4.6600 O.3       1 ATP        -0.8191
     13 O5'         3.2903    0.1346   -2.8241 O.3       1 ATP        -0.5644
     14 C5'         2.2816   -0.2918   -1.9206 C.3       1 ATP         0.2062
     15 C4'         2.7248    0.0226   -0.4980 C.3       1 ATP         0.0971
     16 O4'         2.4697    1.4219   -0.2462 O.3       1 ATP        -0.3662
     17 C3'         1.9404   -0.7419    0.5596 C.3       1 ATP         0.0734
     18 O3'         2.7418   -0.8086    1.7389 O.3       1 ATP        -0.5671
     19 C2'         0.7477    0.1630    0.7858 C.3       1 ATP         0.0745
     20 O2'         0.1373   -0.0577    2.0407 O.3       1 ATP        -0.5794
     21 C1'         1.3733    1.5427    0.6747 C.3       1 ATP         0.3824
     22 N9          0.4520    2.5240    0.1767 N.pl3     1 ATP        -0.4324
     23 C8          0.5691    3.2215   -0.9485 C.ar      1 ATP         0.2662
     24 N7         -0.4499    4.0551   -1.1342 N.pl3     1 ATP        -0.4772
     25 C5         -1.2618    3.8674   -0.0512 C.ar      1 ATP        -0.1305
     26 C6         -2.5420    4.5007    0.3120 C.ar      1 ATP         0.7186
     27 N6         -3.0874    5.3993   -0.4432 N.2       1 ATP        -0.8115
     28 N1         -3.0494    4.0205    1.5133 N.pl3     1 ATP        -0.8400
     29 C2         -2.3933    3.0527    2.2567 C.ar      1 ATP         0.6671
     30 N3         -1.2611    2.4796    1.9536 N.2       1 ATP        -0.5806
     31 C4         -0.7334    2.9358    0.7669 C.ar      1 ATP         0.2748
     32 HOG3        0.8683   -0.6529   -9.0043 H         1 ATP         0.4327
     33 HOB2       -0.0401    3.0981   -5.1106 H         1 ATP         0.4701
     34 H5'1        1.3514    0.2330   -2.1577 H         1 ATP         0.0401
     35 H5'2        2.1280   -1.3678   -2.0460 H         1 ATP         0.0401
     36 H4'         3.8044   -0.1397   -0.4040 H         1 ATP         0.1136
     37 H3'         1.6764   -1.7639    0.2728 H         1 ATP         0.0693
     38 HO3'        3.5554   -1.2733    1.4914 H         1 ATP         0.4124
     39 H2'        -0.0011    0.0027    0.0003 H         1 ATP         0.0854
     40 HO2'        0.8082    0.1199    2.7232 H         1 ATP         0.4367
     41 H1'         1.7826    1.9024    1.6451 H         1 ATP         0.1343
     42 H8          1.3912    3.1285   -1.6365 H         1 ATP         0.3302
     43 HN62       -3.9637    5.7084   -0.0142 H         1 ATP         0.4160
     44 H2         -2.9317    2.7866    3.1796 H         1 ATP         0.0756
     45 H45        -3.9307    4.3923    1.8559 H         1 ATP         0.4587
     46 H46        -0.5835    4.6857   -1.9122 H         1 ATP         0.5254
@<TRIPOS>BOND
     1    1    2 2
     2    1    3 1
     3    1    4 1
     4    1    8 1
     5    4   32 1
     6    5    6 2
     7    5    7 1
     8    5    8 1
     9    5   12 1
    10    7   33 1
    11    9   10 2
    12    9   11 1
    13    9   12 1
    14    9   13 1
    15   13   14 1
    16   14   15 1
    17   14   34 1
    18   14   35 1
    19   15   16 1
    20   15   17 1
    21   15   36 1
    22   16   21 1
    23   17   18 1
    24   17   19 1
    25   17   37 1
    26   18   38 1
    27   19   20 1
    28   19   21 1
    29   19   39 1
    30   20   40 1
    31   21   22 1
    32   21   41 1
    33   22   23 ar
    34   22   31 ar
    35   23   24 ar
    36   23   42 1
    37   24   25 ar
    38   24   46 1
    39   25   26 ar
    40   25   31 ar
    41   26   27 2
    42   26   28 ar
    43   27   43 1
    44   28   29 ar
    45   28   45 1
    46   29   30 ar
    47   29   44 1
    48   30   31 ar
@<TRIPOS>SUBSTRUCTURE
     1 ATP         1 GROUP 0 A     ****
@<TRIPOS>MOLECULE
[[[3,4-dihydroxy-5-(6-imino-7,8-dihydro-1~{H}-purin-8-ylium-9-yl)tetrahydrofuran-2-yl]methoxy-oxido-phosphoryl]oxy-hydroxy-phosphoryl] hydrogen phosphate
   46    48     1     0     0
SMALL
USER_CHARGES

@<TRIPOS>ATOM
      1 PG          5.5647   -4.0730   -7.0696 P.3       1 ATP         1.5595
      2 O1G         5.0753   -3.5484   -8.4011 O.co2     1 ATP        -0.8438
      3 O2G         5.4972   -5.5483   -6.7434 O.co2     1 ATP        -0.8438
      4 O3G         7.0989   -3.5618   -6.8434 O.3       1 ATP        -0.7800
      5 PB          4.7537   -1.6365   -5.6192 P.3       1 ATP         1.9223
      6 O1B         6.0713   -0.9386   -5.4547 O.2       1 ATP        -0.8953
      7 O2B         3.8449   -1.1045   -6.8459 O.3       1 ATP        -0.8165
      8 O3B         4.8448   -3.2302   -5.8731 O.3       1 ATP        -0.8247
      9 PA          3.9668   -2.1113   -2.8163 P.3       1 ATP         1.6157
     10 O1A         5.0717   -1.3104   -2.1623 O.co2     1 ATP        -0.8629
     11 O2A         4.0213   -3.6232   -2.8462 O.co2     1 ATP        -0.8629
     12 O3A         3.7625   -1.5756   -4.3451 O.3       1 ATP        -0.8191
     13 O5'         2.5245   -1.6648   -2.1878 O.3       1 ATP        -0.5644
     14 C5'         2.2816   -0.2918   -1.9206 C.3       1 ATP         0.2062
     15 C4'         2.7248    0.0226   -0.4980 C.3       1 ATP         0.0971
     16 O4'         2.4697    1.4219   -0.2462 O.3       1 ATP        -0.3662
     17 C3'         1.9404   -0.7419    0.5596 C.3       1 ATP         0.0734
     18 O3'         2.7418   -0.8086    1.7389 O.3       1 ATP        -0.5671
     19 C2'         0.7477    0.1630    0.7858 C.3       1 ATP         0.0745
     20 O2'         0.1373   -0.0577    2.0407 O.3       1 ATP        -0.5794
     21 C1'         1.3733    1.5427    0.6747 C.3       1 ATP         0.3824
     22 N9          0.4520    2.5240    0.1767 N.pl3     1 ATP        -0.4324
     23 C8          0.2216    2.8192   -1.0985 C.ar      1 ATP         0.2662
     24 N7         -0.6906    3.7763   -1.2384 N.pl3     1 ATP        -0.4772
     25 C5         -1.0575    4.1037    0.0366 C.ar      1 ATP        -0.1305
     26 C6         -2.0291    5.0943    0.5330 C.ar      1 ATP         0.7186
     27 N6         -2.7093    5.8371   -0.2800 N.2       1 ATP        -0.8115
     28 N1         -2.1051    5.1136    1.9204 N.pl3     1 ATP        -0.8400
     29 C2         -1.3354    4.2774    2.7129 C.ar      1 ATP         0.6671
     30 N3         -0.4707    3.3945    2.2944 N.2       1 ATP        -0.5806
     31 C4         -0.3734    3.3525    0.9220 C.ar      1 ATP         0.2748
     32 HOG3        7.5605   -3.8216   -6.0177 H         1 ATP         0.4327
     33 HOB2        4.2009   -1.1583   -7.7584 H         1 ATP         0.4701
     34 H5'1        2.8432    0.3119   -2.6398 H         1 ATP         0.0401
     35 H5'2        1.2128   -0.0927   -2.0428 H         1 ATP         0.0401
     36 H4'         3.8044   -0.1397   -0.4040 H         1 ATP         0.1136
     37 H3'         1.6764   -1.7639    0.2728 H         1 ATP         0.0693
     38 HO3'        2.2232   -1.2979    2.3953 H         1 ATP         0.4124
     39 H2'        -0.0011    0.0027    0.0003 H         1 ATP         0.0854
     40 HO2'       -0.6141    0.5574    2.1082 H         1 ATP         0.4367
     41 H1'         1.7826    1.9024    1.6451 H         1 ATP         0.1343
     42 H8          0.7125    2.3429   -1.9292 H         1 ATP         0.3302
     43 HN62       -3.3217    6.4517    0.2629 H         1 ATP         0.4160
     44 H2         -1.5188    4.4223    3.7890 H         1 ATP         0.0756
     45 H45        -2.7470    5.7627    2.3665 H         1 ATP         0.4587
     46 H46        -1.0305    4.1680   -2.1054 H         1 ATP         0.5254
@<TRIPOS>BOND
     1    1    2 2
     2    1    3 1
     3    1    4 1
     4    1    8 1
     5    4   32 1
     6    5    6 2
     7    5    7 1
     8    5    8 1
     9    5   12 1
    10    7   33 1
    11    9   10 2
    12    9   11 1
    13    9   12 1
    14    9   13 1
    15   13   14 1
    16   14   15 1
    17   14   34 1
    18   14   35 1
    19   15   16 1
    20   15   17 1
    21   15   36 1
    22   16   21 1
    23   17   18 1
    24   17   19 1
    25   17   37 1
    26   18   38 1
    27   19   20 1
    28   19   21 1
    29   19   39 1
    30   20   40 1
    31   21   22 1
    32   21   41 1
    33   22   23 ar
    34   22   31 ar
    35   23   24 ar
    36   23   42 1
    37   24   25 ar
    38   24   46 1
    39   25   26 ar
    40   25   31 ar
    41   26   27 2
    42   26   28 ar
    43   27   43 1
    44   28   29 ar
    45   28   45 1
    46   29   30 ar
    47   29   44 1
    48   30   31 ar
@<TRIPOS>SUBSTRUCTURE
     1 ATP         1 GROUP 0 A     ****
@<TRIPOS>MOLECULE
[[[3,4-dihydroxy-5-(6-imino-7,8-dihydro-1~{H}-purin-8-ylium-9-yl)tetrahydrofuran-2-yl]methoxy-oxido-phosphoryl]oxy-hydroxy-phosphoryl] hydrogen phosphate
   46    48     1     0     0
SMALL
USER_CHARGES

@<TRIPOS>ATOM
      1 PG         -0.4616  -10.3235    5.4012 P.3       1 ATP         1.5595
      2 O1G        -1.6437  -10.4970    6.3286 O.co2     1 ATP        -0.8438
      3 O2G         0.9528  -10.5161    5.9010 O.co2     1 ATP        -0.8438
      4 O3G        -0.6839  -11.2768    4.0943 O.3       1 ATP        -0.7800
      5 PB         -0.4636   -7.3769    5.2769 P.3       1 ATP         1.9223
      6 O1B        -1.4786   -7.0379    6.3282 O.2       1 ATP        -0.8953
      7 O2B         1.0778   -7.2695    5.7524 O.3       1 ATP        -0.8165
      8 O3B        -0.5737   -8.8705    4.6688 O.3       1 ATP        -0.8247
      9 PA         -1.7207   -6.2768    2.8457 P.3       1 ATP         1.6157
     10 O1A        -2.8743   -5.5689    3.5224 O.co2     1 ATP        -0.8629
     11 O2A        -1.9358   -7.5875    2.1206 O.co2     1 ATP        -0.8629
     12 O3A        -0.5195   -6.4834    3.9322 O.3       1 ATP        -0.8191
     13 O5'        -0.9724   -5.2440    1.8220 O.3       1 ATP        -0.5644
     14 C5'        -0.7840   -3.8935    2.2172 C.3       1 ATP         0.2062
     15 C4'        -0.0724   -3.1466    1.1027 C.3       1 ATP         0.0971
     16 O4'        -0.8674   -3.1929   -0.0945 O.3       1 ATP        -0.3662
     17 C3'         0.1338   -1.6715    1.4027 C.3       1 ATP         0.0734
     18 O3'         1.2893   -1.4445    2.1808 O.3       1 ATP        -0.5671
     19 C2'         0.2158   -1.0724    0.0128 C.3       1 ATP         0.0745
     20 O2'         1.5141   -1.2448   -0.5513 O.3       1 ATP        -0.5794
     21 C1'        -0.7897   -1.9176   -0.7583 C.3       1 ATP         0.3824
     22 N9         -2.1040   -1.3333   -0.7704 N.pl3     1 ATP        -0.4324
     23 C8         -3.0590   -1.5123    0.1363 C.ar      1 ATP         0.2662
     24 N7         -4.1655   -0.8354   -0.1554 N.pl3     1 ATP        -0.4772
     25 C5         -3.8852   -0.1874   -1.3253 C.ar      1 ATP        -0.1305
     26 C6         -4.7113    0.7160   -2.1458 C.ar      1 ATP         0.7186
     27 N6         -5.9213    1.0209   -1.8021 N.2       1 ATP        -0.8115
     28 N1         -4.0411    1.1673   -3.2764 N.pl3     1 ATP        -0.8400
     29 C2         -2.7403    0.7865   -3.5638 C.ar      1 ATP         0.6671
     30 N3         -1.9921   -0.0108   -2.8519 N.2       1 ATP        -0.5806
     31 C4         -2.6302   -0.4747   -1.7239 C.ar      1 ATP         0.2748
     32 HOG3        0.0029  -11.2763    3.3940 H         1 ATP         0.4327
     33 HOB2        1.3847   -7.8295    6.4971 H         1 ATP         0.4701
     34 H5'1       -1.7618   -3.4448    2.4164 H         1 ATP         0.0401
     35 H5'2       -0.1874   -3.8744    3.1341 H         1 ATP         0.0401
     36 H4'         0.8874   -3.6466    0.8805 H         1 ATP         0.1136
     37 H3'        -0.7376   -1.2333    1.9867 H         1 ATP         0.0693
     38 HO3'        1.3408   -0.4870    2.3219 H         1 ATP         0.4124
     39 H2'        -0.0384   -0.0310    0.0096 H         1 ATP         0.0854
     40 HO2'        2.1463   -0.7958    0.0370 H         1 ATP         0.4367
     41 H1'        -0.4769   -2.1002   -1.8093 H         1 ATP         0.1343
     42 H8         -2.9569   -2.1323    1.0098 H         1 ATP         0.3302
     43 HN62       -6.3169    1.6552   -2.5012 H         1 ATP         0.4160
     44 H2         -2.3612    1.2343   -4.4957 H         1 ATP         0.0756
     45 H45        -4.5223    1.7976   -3.9117 H         1 ATP         0.4587
     46 H46        -5.0218   -0.8132    0.3804 H         1 ATP         0.5254
@<TRIPOS>BOND
     1    1    2 2
     2    1    3 1
     3    1    4 1
     4    1    8 1
     5    4   32 1
     6    5    6 2
     7    5    7 1
     8    5    8 1
     9    5   12 1
    10    7   33 1
    11    9   10 2
    12    9   11 1
    13    9   12 1
    14    9   13 1
    15   13   14 1
    16   14   15 1
    17   14   34 1
    18   14   35 1
    19   15   16 1
    20   15   17 1
    21   15   36 1
    22   16   21 1
    23   17   18 1
    24   17   19 1
    25   17   37 1
    26   18   38 1
    27   19   20 1
    28   19   21 1
    29   19   39 1
    30   20   40 1
    31   21   22 1
    32   21   41 1
    33   22   23 ar
    34   22   31 ar
    35   23   24 ar
    36   23   42 1
    37   24   25 ar
    38   24   46 1
    39   25   26 ar
    40   25   31 ar
    41   26   27 2
    42   26   28 ar
    43   27   43 1
    44   28   29 ar
    45   28   45 1
    46   29   30 ar
    47   29   44 1
    48   30   31 ar
@<TRIPOS>SUBSTRUCTURE
     1 ATP         1 GROUP 0 A     ****
@<TRIPOS>MOLECULE
[[[3,4-dihydroxy-5-(6-imino-7,8-dihydro-1~{H}-purin-8-ylium-9-yl)tetrahydrofuran-2-yl]methoxy-oxido-phosphoryl]oxy-hydroxy-phosphoryl] hydrogen phosphate
   46    48     1     0     0
SMALL
USER_CHARGES

@<TRIPOS>ATOM
      1 PG         -0.8076   -5.0498   -6.1677 P.3       1 ATP         1.5595
      2 O1G        -0.7537   -4.6912   -7.6361 O.co2     1 ATP        -0.8438
      3 O2G        -2.1286   -5.3157   -5.4809 O.co2     1 ATP        -0.8438
      4 O3G         0.1772   -6.3264   -5.9095 O.3       1 ATP        -0.7800
      5 PB         -0.2981   -2.3614   -5.0675 P.3       1 ATP         1.9223
      6 O1B        -0.3731   -1.5169   -6.3050 O.2       1 ATP        -0.8953
      7 O2B        -1.6414   -2.3802   -4.1682 O.3       1 ATP        -0.8165
      8 O3B         0.0164   -3.9268   -5.3192 O.3       1 ATP        -0.8247
      9 PA          1.2680   -2.6342   -2.5827 P.3       1 ATP         1.6157
     10 O1A         1.7716   -4.0414   -2.8198 O.co2     1 ATP        -0.8629
     11 O2A         0.1425   -2.3698   -1.6064 O.co2     1 ATP        -0.8629
     12 O3A         0.8669   -1.9697   -4.0192 O.3       1 ATP        -0.8191
     13 O5'         2.5245   -1.6648   -2.1878 O.3       1 ATP        -0.5644
     14 C5'         2.2816   -0.2918   -1.9206 C.3       1 ATP         0.2062
     15 C4'         2.7248    0.0226   -0.4980 C.3       1 ATP         0.0971
     16 O4'         2.4697    1.4219   -0.2462 O.3       1 ATP        -0.3662
     17 C3'         1.9404   -0.7419    0.5596 C.3       1 ATP         0.0734
     18 O3'         2.7418   -0.8086    1.7389 O.3       1 ATP        -0.5671
     19 C2'         0.7477    0.1630    0.7858 C.3       1 ATP         0.0745
     20 O2'         0.1373   -0.0577    2.0407 O.3       1 ATP        -0.5794
     21 C1'         1.3733    1.5427    0.6747 C.3       1 ATP         0.3824
     22 N9          0.4520    2.5240    0.1767 N.pl3     1 ATP        -0.4324
     23 C8          0.2216    2.8192   -1.0985 C.ar      1 ATP         0.2662
     24 N7         -0.6906    3.7763   -1.2384 N.pl3     1 ATP        -0.4772
     25 C5         -1.0575    4.1037    0.0366 C.ar      1 ATP        -0.1305
     26 C6         -2.0291    5.0943    0.5330 C.ar      1 ATP         0.7186
     27 N6         -2.7093    5.8371   -0.2800 N.2       1 ATP        -0.8115
     28 N1         -2.1051    5.1136    1.9204 N.pl3     1 ATP        -0.8400
     29 C2         -1.3354    4.2774    2.7129 C.ar      1 ATP         0.6671
     30 N3         -0.4707    3.3945    2.2944 N.2       1 ATP        -0.5806
     31 C4         -0.3734    3.3525    0.9220 C.ar      1 ATP         0.2748
     32 HOG3        0.2521   -6.6812   -4.9981 H         1 ATP         0.4327
     33 HOB2       -1.9772   -1.5357   -3.7990 H         1 ATP         0.4701
     34 H5'1        2.8432    0.3119   -2.6398 H         1 ATP         0.0401
     35 H5'2        1.2128   -0.0927   -2.0428 H         1 ATP         0.0401
     36 H4'         3.8044   -0.1397   -0.4040 H         1 ATP         0.1136
     37 H3'         1.6764   -1.7639    0.2728 H         1 ATP         0.0693
     38 HO3'        2.2232   -1.2979    2.3953 H         1 ATP         0.4124
     39 H2'        -0.0011    0.0027    0.0003 H         1 ATP         0.0854
     40 HO2'       -0.6141    0.5574    2.1082 H         1 ATP         0.4367
     41 H1'         1.7826    1.9024    1.6451 H         1 ATP         0.1343
     42 H8          0.7125    2.3429   -1.9292 H         1 ATP         0.3302
     43 HN62       -3.3217    6.4517    0.2629 H         1 ATP         0.4160
     44 H2         -1.5188    4.4223    3.7890 H         1 ATP         0.0756
     45 H45        -2.7470    5.7627    2.3665 H         1 ATP         0.4587
     46 H46        -1.0305    4.1680   -2.1054 H         1 ATP         0.5254
@<TRIPOS>BOND
     1    1    2 2
     2    1    3 1
     3    1    4 1
     4    1    8 1
     5    4   32 1
     6    5    6 2
     7    5    7 1
     8    5    8 1
     9    5   12 1
    10    7   33 1
    11    9   10 2
    12    9   11 1
    13    9   12 1
    14    9   13 1
    15   13   14 1
    16   14   15 1
    17   14   34 1
    18   14   35 1
    19   15   16 1
    20   15   17 1
    21   15   36 1
    22   16   21 1
    23   17   18 1
    24   17   19 1
    25   17   37 1
    26   18   38 1
    27   19   20 1
    28   19   21 1
    29   19   39 1
    30   20   40 1
    31   21   22 1
    32   21   41 1
    33   22   23 ar
    34   22   31 ar
    35   23   24 ar
    36   23   42 1
    37   24   25 ar
    38   24   46 1
    39   25   26 ar
    40   25   31 ar
    41   26   27 2
    42   26   28 ar
    43   27   43 1
    44   28   29 ar
    45   28   45 1
    46   29   30 ar
    47   29   44 1
    48   30   31 ar
@<TRIPOS>SUBSTRUCTURE
     1 ATP         1 GROUP 0 A     ****
@<TRIPOS>MOLECULE
[[[3,4-dihydroxy-5-(6-imino-7,8-dihydro-1~{H}-purin-8-ylium-9-yl)tetrahydrofuran-2-yl]methoxy-oxido-phosphoryl]oxy-hydroxy-phosphoryl] hydrogen phosphate
   46    48     1     0     0
SMALL
USER_CHARGES

@<TRIPOS>ATOM
      1 PG          0.0800    5.5861   -4.0025 P.3       1 ATP         1.5595
      2 O1G         0.0254    6.2990   -2.6696 O.co2     1 ATP        -0.8438
      3 O2G        -1.1676    5.4043   -4.8380 O.co2     1 ATP        -0.8438
      4 O3G         1.2226    6.2996   -4.9254 O.3       1 ATP        -0.7800
      5 PB          1.2557    3.0281   -4.8813 P.3       1 ATP         1.9223
      6 O1B         0.1526    2.4736   -5.7333 O.2       1 ATP        -0.8953
      7 O2B         2.4489    3.7562   -5.6934 O.3       1 ATP        -0.8165
      8 O3B         0.7984    4.1364   -3.7971 O.3       1 ATP        -0.8247
      9 PA          2.8619    0.6169   -4.3269 P.3       1 ATP         1.6157
     10 O1A         4.0991    1.0216   -5.0986 O.co2     1 ATP        -0.8629
     11 O2A         1.8962   -0.4016   -4.8925 O.co2     1 ATP        -0.8629
     12 O3A         2.0200    1.9612   -3.9394 O.3       1 ATP        -0.8191
     13 O5'         3.2903    0.1346   -2.8241 O.3       1 ATP        -0.5644
     14 C5'         2.2816   -0.2918   -1.9206 C.3       1 ATP         0.2062
     15 C4'         2.7248    0.0226   -0.4980 C.3       1 ATP         0.0971
     16 O4'         2.4697    1.4219   -0.2462 O.3       1 ATP        -0.3662
     17 C3'         1.9404   -0.7419    0.5596 C.3       1 ATP         0.0734
     18 O3'         2.7418   -0.8086    1.7389 O.3       1 ATP        -0.5671
     19 C2'         0.7477    0.1630    0.7858 C.3       1 ATP         0.0745
     20 O2'         0.1373   -0.0577    2.0407 O.3       1 ATP        -0.5794
     21 C1'         1.3733    1.5427    0.6747 C.3       1 ATP         0.3824
     22 N9          0.4520    2.5240    0.1767 N.pl3     1 ATP        -0.4324
     23 C8          0.2216    2.8192   -1.0985 C.ar      1 ATP         0.2662
     24 N7         -0.6906    3.7763   -1.2384 N.pl3     1 ATP        -0.4772
     25 C5         -1.0575    4.1037    0.0366 C.ar      1 ATP        -0.1305
     26 C6         -2.0291    5.0943    0.5330 C.ar      1 ATP         0.7186
     27 N6         -2.7093    5.8371   -0.2800 N.2       1 ATP        -0.8115
     28 N1         -2.1051    5.1136    1.9204 N.pl3     1 ATP        -0.8400
     29 C2         -1.3354    4.2774    2.7129 C.ar      1 ATP         0.6671
     30 N3         -0.4707    3.3945    2.2944 N.2       1 ATP        -0.5806
     31 C4         -0.3734    3.3525    0.9220 C.ar      1 ATP         0.2748
     32 HOG3        2.1470    6.3112   -4.5977 H         1 ATP         0.4327
     33 HOB2        2.2365    4.5326   -6.2541 H         1 ATP         0.4701
     34 H5'1        1.3514    0.2330   -2.1577 H         1 ATP         0.0401
     35 H5'2        2.1280   -1.3678   -2.0460 H         1 ATP         0.0401
     36 H4'         3.8044   -0.1397   -0.4040 H         1 ATP         0.1136
     37 H3'         1.6764   -1.7639    0.2728 H         1 ATP         0.0693
     38 HO3'        2.2232   -1.2979    2.3953 H         1 ATP         0.4124
     39 H2'        -0.0011    0.0027    0.0003 H         1 ATP         0.0854
     40 HO2'       -0.1563   -0.9855    2.0596 H         1 ATP         0.4367
     41 H1'         1.7826    1.9024    1.6451 H         1 ATP         0.1343
     42 H8          0.7125    2.3429   -1.9292 H         1 ATP         0.3302
     43 HN62       -3.3217    6.4517    0.2629 H         1 ATP         0.4160
     44 H2         -1.5188    4.4223    3.7890 H         1 ATP         0.0756
     45 H45        -2.7470    5.7627    2.3665 H         1 ATP         0.4587
     46 H46        -1.0305    4.1680   -2.1054 H         1 ATP         0.5254
@<TRIPOS>BOND
     1    1    2 2
     2    1    3 1
     3    1    4 1
     4    1    8 1
     5    4   32 1
     6    5    6 2
     7    5    7 1
     8    5    8 1
     9    5   12 1
    10    7   33 1
    11    9   10 2
    12    9   11 1
    13    9   12 1
    14    9   13 1
    15   13   14 1
    16   14   15 1
    17   14   34 1
    18   14   35 1
    19   15   16 1
    20   15   17 1
    21   15   36 1
    22   16   21 1
    23   17   18 1
    24   17   19 1
    25   17   37 1
    26   18   38 1
    27   19   20 1
    28   19   21 1
    29   19   39 1
    30   20   40 1
    31   21   22 1
    32   21   41 1
    33   22   23 ar
    34   22   31 ar
    35   23   24 ar
    36   23   42 1
    37   24   25 ar
    38   24   46 1
    39   25   26 ar
    40   25   31 ar
    41   26   27 2
    42   26   28 ar
    43   27   43 1
    44   28   29 ar
    45   28   45 1
    46   29   30 ar
    47   29   44 1
    48   30   31 ar
@<TRIPOS>SUBSTRUCTURE
     1 ATP         1 GROUP 0 A     ****
@<TRIPOS>MOLECULE
[[[3,4-dihydroxy-5-(6-imino-7,8-dihydro-1~{H}-purin-8-ylium-9-yl)tetrahydrofuran-2-yl]methoxy-oxido-phosphoryl]oxy-hydroxy-phosphoryl] hydrogen phosphate
   46    48     1     0     0
SMALL
USER_CHARGES

@<TRIPOS>ATOM
      1 PG          2.8839   -7.6735    5.9090 P.3       1 ATP         1.5595
      2 O1G         3.0632   -9.1077    5.4632 O.co2     1 ATP        -0.8438
      3 O2G         2.9493   -7.3012    7.3734 O.co2     1 ATP        -0.8438
      4 O3G         3.9430   -6.7396    5.0889 O.3       1 ATP        -0.7800
      5 PB          0.9776   -7.0602    3.7439 P.3       1 ATP         1.9223
      6 O1B         1.8516   -6.3061    2.7860 O.2       1 ATP        -0.8953
      7 O2B         0.7519   -8.6199    3.3834 O.3       1 ATP        -0.8165
      8 O3B         1.4988   -7.0922    5.2737 O.3       1 ATP        -0.8247
      9 PA         -1.7207   -6.2768    2.8457 P.3       1 ATP         1.6157
     10 O1A        -2.8743   -5.5689    3.5224 O.co2     1 ATP        -0.8629
     11 O2A        -1.9358   -7.5875    2.1206 O.co2     1 ATP        -0.8629
     12 O3A        -0.5195   -6.4834    3.9322 O.3       1 ATP        -0.8191
     13 O5'        -0.9724   -5.2440    1.8220 O.3       1 ATP        -0.5644
     14 C5'        -0.7840   -3.8935    2.2172 C.3       1 ATP         0.2062
     15 C4'        -0.0724   -3.1466    1.1027 C.3       1 ATP         0.0971
     16 O4'        -0.8674   -3.1929   -0.0945 O.3       1 ATP        -0.3662
     17 C3'         0.1338   -1.6715    1.4027 C.3       1 ATP         0.0734
     18 O3'         1.2893   -1.4445    2.1808 O.3       1 ATP        -0.5671
     19 C2'         0.2158   -1.0724    0.0128 C.3       1 ATP         0.0745
     20 O2'         1.5141   -1.2448   -0.5513 O.3       1 ATP        -0.5794
     21 C1'        -0.7897   -1.9176   -0.7583 C.3       1 ATP         0.3824
     22 N9         -2.1040   -1.3333   -0.7704 N.pl3     1 ATP        -0.4324
     23 C8         -3.0590   -1.5123    0.1363 C.ar      1 ATP         0.2662
     24 N7         -4.1655   -0.8354   -0.1554 N.pl3     1 ATP        -0.4772
     25 C5         -3.8852   -0.1874   -1.3253 C.ar      1 ATP        -0.1305
     26 C6         -4.7113    0.7160   -2.1458 C.ar      1 ATP         0.7186
     27 N6         -5.9213    1.0209   -1.8021 N.2       1 ATP        -0.8115
     28 N1         -4.0411    1.1673   -3.2764 N.pl3     1 ATP        -0.8400
     29 C2         -2.7403    0.7865   -3.5638 C.ar      1 ATP         0.6671
     30 N3         -1.9921   -0.0108   -2.8519 N.2       1 ATP        -0.5806
     31 C4         -2.6302   -0.4747   -1.7239 C.ar      1 ATP         0.2748
     32 HOG3        3.9505   -5.7752    5.2677 H         1 ATP         0.4327
     33 HOB2        0.3360   -8.8534    2.5262 H         1 ATP         0.4701
     34 H5'1       -1.7618   -3.4448    2.4164 H         1 ATP         0.0401
     35 H5'2       -0.1874   -3.8744    3.1341 H         1 ATP         0.0401
     36 H4'         0.8874   -3.6466    0.8805 H         1 ATP         0.1136
     37 H3'        -0.7376   -1.2333    1.9867 H         1 ATP         0.0693
     38 HO3'        1.3408   -0.4870    2.3219 H         1 ATP         0.4124
     39 H2'        -0.0384   -0.0310    0.0096 H         1 ATP         0.0854
     40 HO2'        2.1463   -0.7958    0.0370 H         1 ATP         0.4367
     41 H1'        -0.4769   -2.1002   -1.8093 H         1 ATP         0.1343
     42 H8         -2.9569   -2.1323    1.0098 H         1 ATP         0.3302
     43 HN62       -6.3169    1.6552   -2.5012 H         1 ATP         0.4160
     44 H2         -2.3612    1.2343   -4.4957 H         1 ATP         0.0756
     45 H45        -4.5223    1.7976   -3.9117 H         1 ATP         0.4587
     46 H46        -5.0218   -0.8132    0.3804 H         1 ATP         0.5254
@<TRIPOS>BOND
     1    1    2 2
     2    1    3 1
     3    1    4 1
     4    1    8 1
     5    4   32 1
     6    5    6 2
     7    5    7 1
     8    5    8 1
     9    5   12 1
    10    7   33 1
    11    9   10 2
    12    9   11 1
    13    9   12 1
    14    9   13 1
    15   13   14 1
    16   14   15 1
    17   14   34 1
    18   14   35 1
    19   15   16 1
    20   15   17 1
    21   15   36 1
    22   16   21 1
    23   17   18 1
    24   17   19 1
    25   17   37 1
    26   18   38 1
    27   19   20 1
    28   19   21 1
    29   19   39 1
    30   20   40 1
    31   21   22 1
    32   21   41 1
    33   22   23 ar
    34   22   31 ar
    35   23   24 ar
    36   23   42 1
    37   24   25 ar
    38   24   46 1
    39   25   26 ar
    40   25   31 ar
    41   26   27 2
    42   26   28 ar
    43   27   43 1
    44   28   29 ar
    45   28   45 1
    46   29   30 ar
    47   29   44 1
    48   30   31 ar
@<TRIPOS>SUBSTRUCTURE
     1 ATP         1 GROUP 0 A     ****
@<TRIPOS>MOLECULE
[[[3,4-dihydroxy-5-(6-imino-7,8-dihydro-1~{H}-purin-8-ylium-9-yl)tetrahydrofuran-2-yl]methoxy-oxido-phosphoryl]oxy-hydroxy-phosphoryl] hydrogen phosphate
   46    48     1     0     0
SMALL
USER_CHARGES

@<TRIPOS>ATOM
      1 PG          4.2911    1.0578   -7.3286 P.3       1 ATP         1.5595
      2 O1G         5.2200    0.1470   -8.1002 O.co2     1 ATP        -0.8438
      3 O2G         4.1224    2.5086   -7.7211 O.co2     1 ATP        -0.8438
      4 O3G         2.8152    0.3620   -7.2684 O.3       1 ATP        -0.7800
      5 PB          4.8132   -0.3013   -4.7638 P.3       1 ATP         1.9223
      6 O1B         5.8571   -1.3006   -5.1665 O.2       1 ATP        -0.8953
      7 O2B         5.0236    0.3586   -3.3030 O.3       1 ATP        -0.8165
      8 O3B         4.6674    0.9759   -5.7437 O.3       1 ATP        -0.8247
      9 PA          2.6194   -2.0514   -3.8552 P.3       1 ATP         1.6157
     10 O1A         3.4097   -3.3216   -4.0830 O.co2     1 ATP        -0.8629
     11 O2A         1.1233   -2.0206   -4.0799 O.co2     1 ATP        -0.8629
     12 O3A         3.2936   -0.8480   -4.7290 O.3       1 ATP        -0.8191
     13 O5'         2.9216   -1.4836   -2.3516 O.3       1 ATP        -0.5644
     14 C5'         2.2816   -0.2918   -1.9206 C.3       1 ATP         0.2062
     15 C4'         2.7248    0.0226   -0.4980 C.3       1 ATP         0.0971
     16 O4'         2.4697    1.4219   -0.2462 O.3       1 ATP        -0.3662
     17 C3'         1.9404   -0.7419    0.5596 C.3       1 ATP         0.0734
     18 O3'         2.7418   -0.8086    1.7389 O.3       1 ATP        -0.5671
     19 C2'         0.7477    0.1630    0.7858 C.3       1 ATP         0.0745
     20 O2'         0.1373   -0.0577    2.0407 O.3       1 ATP        -0.5794
     21 C1'         1.3733    1.5427    0.6747 C.3       1 ATP         0.3824
     22 N9          0.4520    2.5240    0.1767 N.pl3     1 ATP        -0.4324
     23 C8          0.2216    2.8192   -1.0985 C.ar      1 ATP         0.2662
     24 N7         -0.6906    3.7763   -1.2384 N.pl3     1 ATP        -0.4772
     25 C5         -1.0575    4.1037    0.0366 C.ar      1 ATP        -0.1305
     26 C6         -2.0291    5.0943    0.5330 C.ar      1 ATP         0.7186
     27 N6         -2.7093    5.8371   -0.2800 N.2       1 ATP        -0.8115
     28 N1         -2.1051    5.1136    1.9204 N.pl3     1 ATP        -0.8400
     29 C2         -1.3354    4.2774    2.7129 C.ar      1 ATP         0.6671
     30 N3         -0.4707    3.3945    2.2944 N.2       1 ATP        -0.5806
     31 C4         -0.3734    3.3525    0.9220 C.ar      1 ATP         0.2748
     32 HOG3        2.0955    0.8340   -6.7977 H         1 ATP         0.4327
     33 HOB2        5.0372   -0.2263   -2.5156 H         1 ATP         0.4701
     34 H5'1        2.5589    0.5217   -2.5976 H         1 ATP         0.0401
     35 H5'2        1.1982   -0.4388   -1.9617 H         1 ATP         0.0401
     36 H4'         3.8044   -0.1397   -0.4040 H         1 ATP         0.1136
     37 H3'         1.6764   -1.7639    0.2728 H         1 ATP         0.0693
     38 HO3'        2.2232   -1.2979    2.3953 H         1 ATP         0.4124
     39 H2'        -0.0011    0.0027    0.0003 H         1 ATP         0.0854
     40 HO2'       -0.6141    0.5574    2.1082 H         1 ATP         0.4367
     41 H1'         1.7826    1.9024    1.6451 H         1 ATP         0.1343
     42 H8          0.7125    2.3429   -1.9292 H         1 ATP         0.3302
     43 HN62       -3.3217    6.4517    0.2629 H         1 ATP         0.4160
     44 H2         -1.5188    4.4223    3.7890 H         1 ATP         0.0756
     45 H45        -2.7470    5.7627    2.3665 H         1 ATP         0.4587
     46 H46        -1.0305    4.1680   -2.1054 H         1 ATP         0.5254
@<TRIPOS>BOND
     1    1    2 2
     2    1    3 1
     3    1    4 1
     4    1    8 1
     5    4   32 1
     6    5    6 2
     7    5    7 1
     8    5    8 1
     9    5   12 1
    10    7   33 1
    11    9   10 2
    12    9   11 1
    13    9   12 1
    14    9   13 1
    15   13   14 1
    16   14   15 1
    17   14   34 1
    18   14   35 1
    19   15   16 1
    20   15   17 1
    21   15   36 1
    22   16   21 1
    23   17   18 1
    24   17   19 1
    25   17   37 1
    26   18   38 1
    27   19   20 1
    28   19   21 1
    29   19   39 1
    30   20   40 1
    31   21   22 1
    32   21   41 1
    33   22   23 ar
    34   22   31 ar
    35   23   24 ar
    36   23   42 1
    37   24   25 ar
    38   24   46 1
    39   25   26 ar
    40   25   31 ar
    41   26   27 2
    42   26   28 ar
    43   27   43 1
    44   28   29 ar
    45   28   45 1
    46   29   30 ar
    47   29   44 1
    48   30   31 ar
@<TRIPOS>SUBSTRUCTURE
     1 ATP         1 GROUP 0 A     ****
@<TRIPOS>MOLECULE
[[[3,4-dihydroxy-5-(6-imino-7,8-dihydro-1~{H}-purin-8-ylium-9-yl)tetrahydrofuran-2-yl]methoxy-oxido-phosphoryl]oxy-hydroxy-phosphoryl] hydrogen phosphate
   46    48     1     0     0
SMALL
USER_CHARGES

@<TRIPOS>ATOM
      1 PG          2.6712   -1.1365   -8.2851 P.3       1 ATP         1.5595
      2 O1G         3.6291   -0.3165   -9.1204 O.co2     1 ATP        -0.8438
      3 O2G         1.1858   -0.8521   -8.3024 O.co2     1 ATP        -0.8438
      4 O3G         2.9008   -2.7152   -8.6332 O.3       1 ATP        -0.7800
      5 PB          2.6587   -1.9707   -5.4564 P.3       1 ATP         1.9223
      6 O1B         1.2304   -1.7109   -5.0784 O.2       1 ATP        -0.8953
      7 O2B         3.0030   -3.5082   -5.8184 O.3       1 ATP        -0.8165
      8 O3B         3.1929   -1.1461   -6.7399 O.3       1 ATP        -0.8247
      9 PA          3.9668   -2.1113   -2.8163 P.3       1 ATP         1.6157
     10 O1A         5.0717   -1.3104   -2.1623 O.co2     1 ATP        -0.8629
     11 O2A         4.0213   -3.6232   -2.8462 O.co2     1 ATP        -0.8629
     12 O3A         3.7625   -1.5756   -4.3451 O.3       1 ATP        -0.8191
     13 O5'         2.5245   -1.6648   -2.1878 O.3       1 ATP        -0.5644
     14 C5'         2.2816   -0.2918   -1.9206 C.3       1 ATP         0.2062
     15 C4'         2.7248    0.0226   -0.4980 C.3       1 ATP         0.0971
     16 O4'         2.4697    1.4219   -0.2462 O.3       1 ATP        -0.3662
     17 C3'         1.9404   -0.7419    0.5596 C.3       1 ATP         0.0734
     18 O3'         2.7418   -0.8086    1.7389 O.3       1 ATP        -0.5671
     19 C2'         0.7477    0.1630    0.7858 C.3       1 ATP         0.0745
     20 O2'         0.1373   -0.0577    2.0407 O.3       1 ATP        -0.5794
     21 C1'         1.3733    1.5427    0.6747 C.3       1 ATP         0.3824
     22 N9          0.4520    2.5240    0.1767 N.pl3     1 ATP        -0.4324
     23 C8          0.2216    2.8192   -1.0985 C.ar      1 ATP         0.2662
     24 N7         -0.6906    3.7763   -1.2384 N.pl3     1 ATP        -0.4772
     25 C5         -1.0575    4.1037    0.0366 C.ar      1 ATP        -0.1305
     26 C6         -2.0291    5.0943    0.5330 C.ar      1 ATP         0.7186
     27 N6         -2.7093    5.8371   -0.2800 N.2       1 ATP        -0.8115
     28 N1         -2.1051    5.1136    1.9204 N.pl3     1 ATP        -0.8400
     29 C2         -1.3354    4.2774    2.7129 C.ar      1 ATP         0.6671
     30 N3         -0.4707    3.3945    2.2944 N.2       1 ATP        -0.5806
     31 C4         -0.3734    3.3525    0.9220 C.ar      1 ATP         0.2748
     32 HOG3        2.3497   -3.3805   -8.1687 H         1 ATP         0.4327
     33 HOB2        2.8605   -4.1995   -5.1372 H         1 ATP         0.4701
     34 H5'1        2.8432    0.3119   -2.6398 H         1 ATP         0.0401
     35 H5'2        1.2128   -0.0927   -2.0428 H         1 ATP         0.0401
     36 H4'         3.8044   -0.1397   -0.4040 H         1 ATP         0.1136
     37 H3'         1.6764   -1.7639    0.2728 H         1 ATP         0.0693
     38 HO3'        2.2232   -1.2979    2.3953 H         1 ATP         0.4124
     39 H2'        -0.0011    0.0027    0.0003 H         1 ATP         0.0854
     40 HO2'       -0.6141    0.5574    2.1082 H         1 ATP         0.4367
     41 H1'         1.7826    1.9024    1.6451 H         1 ATP         0.1343
     42 H8          0.7125    2.3429   -1.9292 H         1 ATP         0.3302
     43 HN62       -3.3217    6.4517    0.2629 H         1 ATP         0.4160
     44 H2         -1.5188    4.4223    3.7890 H         1 ATP         0.0756
     45 H45        -2.7470    5.7627    2.3665 H         1 ATP         0.4587
     46 H46        -1.0305    4.1680   -2.1054 H         1 ATP         0.5254
@<TRIPOS>BOND
     1    1    2 2
     2    1    3 1
     3    1    4 1
     4    1    8 1
     5    4   32 1
     6    5    6 2
     7    5    7 1
     8    5    8 1
     9    5   12 1
    10    7   33 1
    11    9   10 2
    12    9   11 1
    13    9   12 1
    14    9   13 1
    15   13   14 1
    16   14   15 1
    17   14   34 1
    18   14   35 1
    19   15   16 1
    20   15   17 1
    21   15   36 1
    22   16   21 1
    23   17   18 1
    24   17   19 1
    25   17   37 1
    26   18   38 1
    27   19   20 1
    28   19   21 1
    29   19   39 1
    30   20   40 1
    31   21   22 1
    32   21   41 1
    33   22   23 ar
    34   22   31 ar
    35   23   24 ar
    36   23   42 1
    37   24   25 ar
    38   24   46 1
    39   25   26 ar
    40   25   31 ar
    41   26   27 2
    42   26   28 ar
    43   27   43 1
    44   28   29 ar
    45   28   45 1
    46   29   30 ar
    47   29   44 1
    48   30   31 ar
@<TRIPOS>SUBSTRUCTURE
     1 ATP         1 GROUP 0 A     ****
@<TRIPOS>MOLECULE
[[[3,4-dihydroxy-5-(6-imino-7,8-dihydro-1~{H}-purin-8-ylium-9-yl)tetrahydrofuran-2-yl]methoxy-oxido-phosphoryl]oxy-hydroxy-phosphoryl] hydrogen phosphate
   46    48     1     0     0
SMALL
USER_CHARGES

@<TRIPOS>ATOM
      1 PG         -4.9865   -5.9106    6.5460 P.3       1 ATP         1.5595
      2 O1G        -6.2223   -5.0490    6.4112 O.co2     1 ATP        -0.8438
      3 O2G        -4.0570   -5.7563    7.7291 O.co2     1 ATP        -0.8438
      4 O3G        -5.4330   -7.4776    6.4384 O.3       1 ATP        -0.7800
      5 PB         -4.5543   -6.0440    3.6316 P.3       1 ATP         1.9223
      6 O1B        -5.0739   -7.4160    3.3187 O.2       1 ATP        -0.8953
      7 O2B        -5.5872   -4.8360    3.3360 O.3       1 ATP        -0.8165
      8 O3B        -4.1174   -5.8066    5.1697 O.3       1 ATP        -0.8247
      9 PA         -1.7207   -6.2768    2.8457 P.3       1 ATP         1.6157
     10 O1A        -1.8041   -7.6468    2.2084 O.co2     1 ATP        -0.8629
     11 O2A        -1.1159   -6.0993    4.2214 O.co2     1 ATP        -0.8629
     12 O3A        -3.2097   -5.6068    2.8503 O.3       1 ATP        -0.8191
     13 O5'        -0.9724   -5.2440    1.8220 O.3       1 ATP        -0.5644
     14 C5'        -0.7840   -3.8935    2.2172 C.3       1 ATP         0.2062
     15 C4'        -0.0724   -3.1466    1.1027 C.3       1 ATP         0.0971
     16 O4'        -0.8674   -3.1929   -0.0945 O.3       1 ATP        -0.3662
     17 C3'         0.1338   -1.6715    1.4027 C.3       1 ATP         0.0734
     18 O3'         1.2893   -1.4445    2.1808 O.3       1 ATP        -0.5671
     19 C2'         0.2158   -1.0724    0.0128 C.3       1 ATP         0.0745
     20 O2'         1.5141   -1.2448   -0.5513 O.3       1 ATP        -0.5794
     21 C1'        -0.7897   -1.9176   -0.7583 C.3       1 ATP         0.3824
     22 N9         -2.1040   -1.3333   -0.7704 N.pl3     1 ATP        -0.4324
     23 C8         -3.0590   -1.5123    0.1363 C.ar      1 ATP         0.2662
     24 N7         -4.1655   -0.8354   -0.1554 N.pl3     1 ATP        -0.4772
     25 C5         -3.8852   -0.1874   -1.3253 C.ar      1 ATP        -0.1305
     26 C6         -4.7113    0.7160   -2.1458 C.ar      1 ATP         0.7186
     27 N6         -5.9213    1.0209   -1.8021 N.2       1 ATP        -0.8115
     28 N1         -4.0411    1.1673   -3.2764 N.pl3     1 ATP        -0.8400
     29 C2         -2.7403    0.7865   -3.5638 C.ar      1 ATP         0.6671
     30 N3         -1.9921   -0.0108   -2.8519 N.2       1 ATP        -0.5806
     31 C4         -2.6302   -0.4747   -1.7239 C.ar      1 ATP         0.2748
     32 HOG3       -4.7383   -8.1666    6.5077 H         1 ATP         0.4327
     33 HOB2       -6.4482   -4.8222    3.8058 H         1 ATP         0.4701
     34 H5'1       -1.7618   -3.4448    2.4164 H         1 ATP         0.0401
     35 H5'2       -0.1874   -3.8744    3.1341 H         1 ATP         0.0401
     36 H4'         0.8874   -3.6466    0.8805 H         1 ATP         0.1136
     37 H3'        -0.7376   -1.2333    1.9867 H         1 ATP         0.0693
     38 HO3'        1.3408   -0.4870    2.3219 H         1 ATP         0.4124
     39 H2'        -0.0384   -0.0310    0.0096 H         1 ATP         0.0854
     40 HO2'        2.1463   -0.7958    0.0370 H         1 ATP         0.4367
     41 H1'        -0.4769   -2.1002   -1.8093 H         1 ATP         0.1343
     42 H8         -2.9569   -2.1323    1.0098 H         1 ATP         0.3302
     43 HN62       -6.3169    1.6552   -2.5012 H         1 ATP         0.4160
     44 H2         -2.3612    1.2343   -4.4957 H         1 ATP         0.0756
     45 H45        -4.5223    1.7976   -3.9117 H         1 ATP         0.4587
     46 H46        -5.0218   -0.8132    0.3804 H         1 ATP         0.5254
@<TRIPOS>BOND
     1    1    2 2
     2    1    3 1
     3    1    4 1
     4    1    8 1
     5    4   32 1
     6    5    6 2
     7    5    7 1
     8    5    8 1
     9    5   12 1
    10    7   33 1
    11    9   10 2
    12    9   11 1
    13    9   12 1
    14    9   13 1
    15   13   14 1
    16   14   15 1
    17   14   34 1
    18   14   35 1
    19   15   16 1
    20   15   17 1
    21   15   36 1
    22   16   21 1
    23   17   18 1
    24   17   19 1
    25   17   37 1
    26   18   38 1
    27   19   20 1
    28   19   21 1
    29   19   39 1
    30   20   40 1
    31   21   22 1
    32   21   41 1
    33   22   23 ar
    34   22   31 ar
    35   23   24 ar
    36   23   42 1
    37   24   25 ar
    38   24   46 1
    39   25   26 ar
    40   25   31 ar
    41   26   27 2
    42   26   28 ar
    43   27   43 1
    44   28   29 ar
    45   28   45 1
    46   29   30 ar
    47   29   44 1
    48   30   31 ar
@<TRIPOS>SUBSTRUCTURE
     1 ATP         1 GROUP 0 A     ****
@<TRIPOS>MOLECULE
[[[3,4-dihydroxy-5-(6-imino-7,8-dihydro-1~{H}-purin-8-ylium-9-yl)tetrahydrofuran-2-yl]methoxy-oxido-phosphoryl]oxy-hydroxy-phosphoryl] hydrogen phosphate
   46    48     1     0     0
SMALL
USER_CHARGES

@<TRIPOS>ATOM
      1 PG          5.6468   -5.8418   -3.2052 P.3       1 ATP         1.5595
      2 O1G         5.7617   -6.3047   -1.7699 O.co2     1 ATP        -0.8438
      3 O2G         6.8056   -5.9927   -4.1654 O.co2     1 ATP        -0.8438
      4 O3G         4.3282   -6.5382   -3.8704 O.3       1 ATP        -0.7800
      5 PB          4.7064   -3.3412   -4.4545 P.3       1 ATP         1.9223
      6 O1B         5.7671   -3.1116   -5.4901 O.2       1 ATP        -0.8953
      7 O2B         3.3485   -4.0249   -5.0043 O.3       1 ATP        -0.8165
      8 O3B         5.1414   -4.2911   -3.2211 O.3       1 ATP        -0.8247
      9 PA          3.4842   -0.6654   -4.2373 P.3       1 ATP         1.6157
     10 O1A         2.1276   -1.0207   -4.8060 O.co2     1 ATP        -0.8629
     11 O2A         4.4991    0.0868   -5.0704 O.co2     1 ATP        -0.8629
     12 O3A         4.1909   -2.0248   -3.6730 O.3       1 ATP        -0.8191
     13 O5'         3.2903    0.1346   -2.8241 O.3       1 ATP        -0.5644
     14 C5'         2.2816   -0.2918   -1.9206 C.3       1 ATP         0.2062
     15 C4'         2.7248    0.0226   -0.4980 C.3       1 ATP         0.0971
     16 O4'         2.4697    1.4219   -0.2462 O.3       1 ATP        -0.3662
     17 C3'         1.9404   -0.7419    0.5596 C.3       1 ATP         0.0734
     18 O3'         2.7418   -0.8086    1.7389 O.3       1 ATP        -0.5671
     19 C2'         0.7477    0.1630    0.7858 C.3       1 ATP         0.0745
     20 O2'         0.1373   -0.0577    2.0407 O.3       1 ATP        -0.5794
     21 C1'         1.3733    1.5427    0.6747 C.3       1 ATP         0.3824
     22 N9          0.4520    2.5240    0.1767 N.pl3     1 ATP        -0.4324
     23 C8          0.2216    2.8192   -1.0985 C.ar      1 ATP         0.2662
     24 N7         -0.6906    3.7763   -1.2384 N.pl3     1 ATP        -0.4772
     25 C5         -1.0575    4.1037    0.0366 C.ar      1 ATP        -0.1305
     26 C6         -2.0291    5.0943    0.5330 C.ar      1 ATP         0.7186
     27 N6         -2.7093    5.8371   -0.2800 N.2       1 ATP        -0.8115
     28 N1         -2.1051    5.1136    1.9204 N.pl3     1 ATP        -0.8400
     29 C2         -1.3354    4.2774    2.7129 C.ar      1 ATP         0.6671
     30 N3         -0.4707    3.3945    2.2944 N.2       1 ATP        -0.5806
     31 C4         -0.3734    3.3525    0.9220 C.ar      1 ATP         0.2748
     32 HOG3        3.4522   -6.3588   -3.4674 H         1 ATP         0.4327
     33 HOB2        3.3987   -4.9114   -5.4212 H         1 ATP         0.4701
     34 H5'1        1.3514    0.2330   -2.1577 H         1 ATP         0.0401
     35 H5'2        2.1280   -1.3678   -2.0460 H         1 ATP         0.0401
     36 H4'         3.8044   -0.1397   -0.4040 H         1 ATP         0.1136
     37 H3'         1.6764   -1.7639    0.2728 H         1 ATP         0.0693
     38 HO3'        2.2232   -1.2979    2.3953 H         1 ATP         0.4124
     39 H2'        -0.0011    0.0027    0.0003 H         1 ATP         0.0854
     40 HO2'       -0.6141    0.5574    2.1082 H         1 ATP         0.4367
     41 H1'         1.7826    1.9024    1.6451 H         1 ATP         0.1343
     42 H8          0.7125    2.3429   -1.9292 H         1 ATP         0.3302
     43 HN62       -3.3217    6.4517    0.2629 H         1 ATP         0.4160
     44 H2         -1.5188    4.4223    3.7890 H         1 ATP         0.0756
     45 H45        -2.7470    5.7627    2.3665 H         1 ATP         0.4587
     46 H46        -1.0305    4.1680   -2.1054 H         1 ATP         0.5254
@<TRIPOS>BOND
     1    1    2 2
     2    1    3 1
     3    1    4 1
     4    1    8 1
     5    4   32 1
     6    5    6 2
     7    5    7 1
     8    5    8 1
     9    5   12 1
    10    7   33 1
    11    9   10 2
    12    9   11 1
    13    9   12 1
    14    9   13 1
    15   13   14 1
    16   14   15 1
    17   14   34 1
    18   14   35 1
    19   15   16 1
    20   15   17 1
    21   15   36 1
    22   16   21 1
    23   17   18 1
    24   17   19 1
    25   17   37 1
    26   18   38 1
    27   19   20 1
    28   19   21 1
    29   19   39 1
    30   20   40 1
    31   21   22 1
    32   21   41 1
    33   22   23 ar
    34   22   31 ar
    35   23   24 ar
    36   23   42 1
    37   24   25 ar
    38   24   46 1
    39   25   26 ar
    40   25   31 ar
    41   26   27 2
    42   26   28 ar
    43   27   43 1
    44   28   29 ar
    45   28   45 1
    46   29   30 ar
    47   29   44 1
    48   30   31 ar
@<TRIPOS>SUBSTRUCTURE
     1 ATP         1 GROUP 0 A     ****
@<TRIPOS>MOLECULE
[[[3,4-dihydroxy-5-(6-imino-7,8-dihydro-1~{H}-purin-8-ylium-9-yl)tetrahydrofuran-2-yl]methoxy-oxido-phosphoryl]oxy-hydroxy-phosphoryl] hydrogen phosphate
   46    48     1     0     0
SMALL
USER_CHARGES

@<TRIPOS>ATOM
      1 PG          7.4004    1.9236   -5.4734 P.3       1 ATP         1.5595
      2 O1G         6.8368    2.8608   -6.5183 O.co2     1 ATP        -0.8438
      3 O2G         8.5223    0.9674   -5.8115 O.co2     1 ATP        -0.8438
      4 O3G         7.8447    2.8048   -4.1725 O.3       1 ATP        -0.7800
      5 PB          5.1878   -0.0258   -5.4311 P.3       1 ATP         1.9223
      6 O1B         4.3632    0.4384   -6.5951 O.2       1 ATP        -0.8953
      7 O2B         6.1672   -1.2745   -5.7397 O.3       1 ATP        -0.8165
      8 O3B         6.1741    1.0871   -4.7977 O.3       1 ATP        -0.8247
      9 PA          3.2529   -1.6802   -3.9410 P.3       1 ATP         1.6157
     10 O1A         3.9303   -3.0166   -4.1535 O.co2     1 ATP        -0.8629
     11 O2A         2.0180   -1.3048   -4.7308 O.co2     1 ATP        -0.8629
     12 O3A         4.3596   -0.4938   -4.1256 O.3       1 ATP        -0.8191
     13 O5'         2.9216   -1.4836   -2.3516 O.3       1 ATP        -0.5644
     14 C5'         2.2816   -0.2918   -1.9206 C.3       1 ATP         0.2062
     15 C4'         2.7248    0.0226   -0.4980 C.3       1 ATP         0.0971
     16 O4'         2.4697    1.4219   -0.2462 O.3       1 ATP        -0.3662
     17 C3'         1.9404   -0.7419    0.5596 C.3       1 ATP         0.0734
     18 O3'         2.7418   -0.8086    1.7389 O.3       1 ATP        -0.5671
     19 C2'         0.7477    0.1630    0.7858 C.3       1 ATP         0.0745
     20 O2'         0.1373   -0.0577    2.0407 O.3       1 ATP        -0.5794
     21 C1'         1.3733    1.5427    0.6747 C.3       1 ATP         0.3824
     22 N9          0.4520    2.5240    0.1767 N.pl3     1 ATP        -0.4324
     23 C8         -0.2004    2.4829   -0.9804 C.ar      1 ATP         0.2662
     24 N7         -0.9830    3.5431   -1.1568 N.pl3     1 ATP        -0.4772
     25 C5         -0.8095    4.3012   -0.0331 C.ar      1 ATP        -0.1305
     26 C6         -1.4065    5.5904    0.3585 C.ar      1 ATP         0.7186
     27 N6         -2.2501    6.2030   -0.4084 N.2       1 ATP        -0.8115
     28 N1         -0.9585    6.0272    1.5994 N.pl3     1 ATP        -0.8400
     29 C2         -0.0508    5.3009    2.3532 C.ar      1 ATP         0.6671
     30 N3          0.4890    4.1592    2.0257 N.2       1 ATP        -0.5806
     31 C4          0.0637    3.7006    0.7995 C.ar      1 ATP         0.2748
     32 HOG3        8.2321    2.3372   -3.4022 H         1 ATP         0.4327
     33 HOB2        5.7754   -2.1215   -6.0418 H         1 ATP         0.4701
     34 H5'1        2.5589    0.5217   -2.5976 H         1 ATP         0.0401
     35 H5'2        1.1982   -0.4388   -1.9617 H         1 ATP         0.0401
     36 H4'         3.8044   -0.1397   -0.4040 H         1 ATP         0.1136
     37 H3'         1.6764   -1.7639    0.2728 H         1 ATP         0.0693
     38 HO3'        2.2232   -1.2979    2.3953 H         1 ATP         0.4124
     39 H2'        -0.0011    0.0027    0.0003 H         1 ATP         0.0854
     40 HO2'       -0.6141    0.5574    2.1082 H         1 ATP         0.4367
     41 H1'         1.7826    1.9024    1.6451 H         1 ATP         0.1343
     42 H8         -0.1116    1.6863   -1.6984 H         1 ATP         0.3302
     43 HN62       -2.5420    7.0730    0.0447 H         1 ATP         0.4160
     44 H2          0.1969    5.7893    3.3086 H         1 ATP         0.0756
     45 H45        -1.3097    6.9080    1.9642 H         1 ATP         0.4587
     46 H46        -1.5735    3.7351   -1.9538 H         1 ATP         0.5254
@<TRIPOS>BOND
     1    1    2 2
     2    1    3 1
     3    1    4 1
     4    1    8 1
     5    4   32 1
     6    5    6 2
     7    5    7 1
     8    5    8 1
     9    5   12 1
    10    7   33 1
    11    9   10 2
    12    9   11 1
    13    9   12 1
    14    9   13 1
    15   13   14 1
    16   14   15 1
    17   14   34 1
    18   14   35 1
    19   15   16 1
    20   15   17 1
    21   15   36 1
    22   16   21 1
    23   17   18 1
    24   17   19 1
    25   17   37 1
    26   18   38 1
    27   19   20 1
    28   19   21 1
    29   19   39 1
    30   20   40 1
    31   21   22 1
    32   21   41 1
    33   22   23 ar
    34   22   31 ar
    35   23   24 ar
    36   23   42 1
    37   24   25 ar
    38   24   46 1
    39   25   26 ar
    40   25   31 ar
    41   26   27 2
    42   26   28 ar
    43   27   43 1
    44   28   29 ar
    45   28   45 1
    46   29   30 ar
    47   29   44 1
    48   30   31 ar
@<TRIPOS>SUBSTRUCTURE
     1 ATP         1 GROUP 0 A     ****
@<TRIPOS>MOLECULE
[[[3,4-dihydroxy-5-(6-imino-7,8-dihydro-1~{H}-purin-8-ylium-9-yl)tetrahydrofuran-2-yl]methoxy-oxido-phosphoryl]oxy-hydroxy-phosphoryl] hydrogen phosphate
   46    48     1     0     0
SMALL
USER_CHARGES

@<TRIPOS>ATOM
      1 PG          3.4076   -4.3495   -7.0196 P.3       1 ATP         1.5595
      2 O1G         4.0621   -5.5913   -6.4564 O.co2     1 ATP        -0.8438
      3 O2G         3.8643   -3.7591   -8.3350 O.co2     1 ATP        -0.8438
      4 O3G         1.7963   -4.6025   -7.0966 O.3       1 ATP        -0.7800
      5 PB          4.6535   -2.3736   -5.2193 P.3       1 ATP         1.9223
      6 O1B         5.6657   -3.2208   -4.5065 O.2       1 ATP        -0.8953
      7 O2B         5.2361   -1.4954   -6.4451 O.3       1 ATP        -0.8165
      8 O3B         3.4200   -3.1827   -5.8801 O.3       1 ATP        -0.8247
      9 PA          4.4373   -0.0468   -3.4192 P.3       1 ATP         1.6157
     10 O1A         5.0360    0.9823   -4.3533 O.co2     1 ATP        -0.8629
     11 O2A         5.2434   -0.6082   -2.2682 O.co2     1 ATP        -0.8629
     12 O3A         3.8709   -1.2957   -4.3054 O.3       1 ATP        -0.8191
     13 O5'         3.0213    0.5153   -2.8245 O.3       1 ATP        -0.5644
     14 C5'         2.2816   -0.2918   -1.9206 C.3       1 ATP         0.2062
     15 C4'         2.7248    0.0226   -0.4980 C.3       1 ATP         0.0971
     16 O4'         2.4697    1.4219   -0.2462 O.3       1 ATP        -0.3662
     17 C3'         1.9404   -0.7419    0.5596 C.3       1 ATP         0.0734
     18 O3'         2.7418   -0.8086    1.7389 O.3       1 ATP        -0.5671
     19 C2'         0.7477    0.1630    0.7858 C.3       1 ATP         0.0745
     20 O2'         0.1373   -0.0577    2.0407 O.3       1 ATP        -0.5794
     21 C1'         1.3733    1.5427    0.6747 C.3       1 ATP         0.3824
     22 N9          0.4520    2.5240    0.1767 N.pl3     1 ATP        -0.4324
     23 C8          0.2216    2.8192   -1.0985 C.ar      1 ATP         0.2662
     24 N7         -0.6906    3.7763   -1.2384 N.pl3     1 ATP        -0.4772
     25 C5         -1.0575    4.1037    0.0366 C.ar      1 ATP        -0.1305
     26 C6         -2.0291    5.0943    0.5330 C.ar      1 ATP         0.7186
     27 N6         -2.7093    5.8371   -0.2800 N.2       1 ATP        -0.8115
     28 N1         -2.1051    5.1136    1.9204 N.pl3     1 ATP        -0.8400
     29 C2         -1.3354    4.2774    2.7129 C.ar      1 ATP         0.6671
     30 N3         -0.4707    3.3945    2.2944 N.2       1 ATP        -0.5806
     31 C4         -0.3734    3.3525    0.9220 C.ar      1 ATP         0.2748
     32 HOG3        1.2270   -3.8831   -7.4438 H         1 ATP         0.4327
     33 HOB2        5.9391   -0.8355   -6.2641 H         1 ATP         0.4701
     34 H5'1        1.2163   -0.0770   -2.0471 H         1 ATP         0.0401
     35 H5'2        2.4655   -1.3443   -2.1563 H         1 ATP         0.0401
     36 H4'         3.8044   -0.1397   -0.4040 H         1 ATP         0.1136
     37 H3'         1.6764   -1.7639    0.2728 H         1 ATP         0.0693
     38 HO3'        3.5554   -1.2733    1.4914 H         1 ATP         0.4124
     39 H2'        -0.0011    0.0027    0.0003 H         1 ATP         0.0854
     40 HO2'       -0.1563   -0.9855    2.0596 H         1 ATP         0.4367
     41 H1'         1.7826    1.9024    1.6451 H         1 ATP         0.1343
     42 H8          0.7125    2.3429   -1.9292 H         1 ATP         0.3302
     43 HN62       -3.3217    6.4517    0.2629 H         1 ATP         0.4160
     44 H2         -1.5188    4.4223    3.7890 H         1 ATP         0.0756
     45 H45        -2.7470    5.7627    2.3665 H         1 ATP         0.4587
     46 H46        -1.0305    4.1680   -2.1054 H         1 ATP         0.5254
@<TRIPOS>BOND
     1    1    2 2
     2    1    3 1
     3    1    4 1
     4    1    8 1
     5    4   32 1
     6    5    6 2
     7    5    7 1
     8    5    8 1
     9    5   12 1
    10    7   33 1
    11    9   10 2
    12    9   11 1
    13    9   12 1
    14    9   13 1
    15   13   14 1
    16   14   15 1
    17   14   34 1
    18   14   35 1
    19   15   16 1
    20   15   17 1
    21   15   36 1
    22   16   21 1
    23   17   18 1
    24   17   19 1
    25   17   37 1
    26   18   38 1
    27   19   20 1
    28   19   21 1
    29   19   39 1
    30   20   40 1
    31   21   22 1
    32   21   41 1
    33   22   23 ar
    34   22   31 ar
    35   23   24 ar
    36   23   42 1
    37   24   25 ar
    38   24   46 1
    39   25   26 ar
    40   25   31 ar
    41   26   27 2
    42   26   28 ar
    43   27   43 1
    44   28   29 ar
    45   28   45 1
    46   29   30 ar
    47   29   44 1
    48   30   31 ar
@<TRIPOS>SUBSTRUCTURE
     1 ATP         1 GROUP 0 A     ****
@<TRIPOS>MOLECULE
[[[3,4-dihydroxy-5-(6-imino-7,8-dihydro-1~{H}-purin-8-ylium-9-yl)tetrahydrofuran-2-yl]methoxy-oxido-phosphoryl]oxy-hydroxy-phosphoryl] hydrogen phosphate
   46    48     1     0     0
SMALL
USER_CHARGES

@<TRIPOS>ATOM
      1 PG         -7.2411   -4.8946    3.2347 P.3       1 ATP         1.5595
      2 O1G        -7.8643   -6.2367    2.9212 O.co2     1 ATP        -0.8438
      3 O2G        -7.7442   -3.6309    2.5734 O.co2     1 ATP        -0.8438
      4 O3G        -7.2647   -4.6776    4.8529 O.3       1 ATP        -0.7800
      5 PB         -4.5543   -6.0440    3.6316 P.3       1 ATP         1.9223
      6 O1B        -4.4610   -6.0661    5.1287 O.2       1 ATP        -0.8953
      7 O2B        -4.9612   -7.4520    2.9495 O.3       1 ATP        -0.8165
      8 O3B        -5.6273   -4.9993    3.0233 O.3       1 ATP        -0.8247
      9 PA         -1.7207   -6.2768    2.8457 P.3       1 ATP         1.6157
     10 O1A        -1.8041   -7.6468    2.2084 O.co2     1 ATP        -0.8629
     11 O2A        -1.1159   -6.0993    4.2214 O.co2     1 ATP        -0.8629
     12 O3A        -3.2097   -5.6068    2.8503 O.3       1 ATP        -0.8191
     13 O5'        -0.9724   -5.2440    1.8220 O.3       1 ATP        -0.5644
     14 C5'        -0.7840   -3.8935    2.2172 C.3       1 ATP         0.2062
     15 C4'        -0.0724   -3.1466    1.1027 C.3       1 ATP         0.0971
     16 O4'        -0.8674   -3.1929   -0.0945 O.3       1 ATP        -0.3662
     17 C3'         0.1338   -1.6715    1.4027 C.3       1 ATP         0.0734
     18 O3'         1.2893   -1.4445    2.1808 O.3       1 ATP        -0.5671
     19 C2'         0.2158   -1.0724    0.0128 C.3       1 ATP         0.0745
     20 O2'         1.5141   -1.2448   -0.5513 O.3       1 ATP        -0.5794
     21 C1'        -0.7897   -1.9176   -0.7583 C.3       1 ATP         0.3824
     22 N9         -2.1040   -1.3333   -0.7704 N.pl3     1 ATP        -0.4324
     23 C8         -3.0590   -1.5123    0.1363 C.ar      1 ATP         0.2662
     24 N7         -4.1655   -0.8354   -0.1554 N.pl3     1 ATP        -0.4772
     25 C5         -3.8852   -0.1874   -1.3253 C.ar      1 ATP        -0.1305
     26 C6         -4.7113    0.7160   -2.1458 C.ar      1 ATP         0.7186
     27 N6         -5.9213    1.0209   -1.8021 N.2       1 ATP        -0.8115
     28 N1         -4.0411    1.1673   -3.2764 N.pl3     1 ATP        -0.8400
     29 C2         -2.7403    0.7865   -3.5638 C.ar      1 ATP         0.6671
     30 N3         -1.9921   -0.0108   -2.8519 N.2       1 ATP        -0.5806
     31 C4         -2.6302   -0.4747   -1.7239 C.ar      1 ATP         0.2748
     32 HOG3       -6.8925   -3.8467    5.2179 H         1 ATP         0.4327
     33 HOB2       -5.8204   -7.8626    3.1850 H         1 ATP         0.4701
     34 H5'1       -1.7618   -3.4448    2.4164 H         1 ATP         0.0401
     35 H5'2       -0.1874   -3.8744    3.1341 H         1 ATP         0.0401
     36 H4'         0.8874   -3.6466    0.8805 H         1 ATP         0.1136
     37 H3'        -0.7376   -1.2333    1.9867 H         1 ATP         0.0693
     38 HO3'        1.3408   -0.4870    2.3219 H         1 ATP         0.4124
     39 H2'        -0.0384   -0.0310    0.0096 H         1 ATP         0.0854
     40 HO2'        2.1463   -0.7958    0.0370 H         1 ATP         0.4367
     41 H1'        -0.4769   -2.1002   -1.8093 H         1 ATP         0.1343
     42 H8         -2.9569   -2.1323    1.0098 H         1 ATP         0.3302
     43 HN62       -6.3169    1.6552   -2.5012 H         1 ATP         0.4160
     44 H2         -2.3612    1.2343   -4.4957 H         1 ATP         0.0756
     45 H45        -4.5223    1.7976   -3.9117 H         1 ATP         0.4587
     46 H46        -5.0218   -0.8132    0.3804 H         1 ATP         0.5254
@<TRIPOS>BOND
     1    1    2 2
     2    1    3 1
     3    1    4 1
     4    1    8 1
     5    4   32 1
     6    5    6 2
     7    5    7 1
     8    5    8 1
     9    5   12 1
    10    7   33 1
    11    9   10 2
    12    9   11 1
    13    9   12 1
    14    9   13 1
    15   13   14 1
    16   14   15 1
    17   14   34 1
    18   14   35 1
    19   15   16 1
    20   15   17 1
    21   15   36 1
    22   16   21 1
    23   17   18 1
    24   17   19 1
    25   17   37 1
    26   18   38 1
    27   19   20 1
    28   19   21 1
    29   19   39 1
    30   20   40 1
    31   21   22 1
    32   21   41 1
    33   22   23 ar
    34   22   31 ar
    35   23   24 ar
    36   23   42 1
    37   24   25 ar
    38   24   46 1
    39   25   26 ar
    40   25   31 ar
    41   26   27 2
    42   26   28 ar
    43   27   43 1
    44   28   29 ar
    45   28   45 1
    46   29   30 ar
    47   29   44 1
    48   30   31 ar
@<TRIPOS>SUBSTRUCTURE
     1 ATP         1 GROUP 0 A     ****
@<TRIPOS>MOLECULE
[[[3,4-dihydroxy-5-(6-imino-7,8-dihydro-1~{H}-purin-8-ylium-9-yl)tetrahydrofuran-2-yl]methoxy-oxido-phosphoryl]oxy-hydroxy-phosphoryl] hydrogen phosphate
   46    48     1     0     0
SMALL
USER_CHARGES

@<TRIPOS>ATOM
      1 PG          0.9307    3.3207   -7.0360 P.3       1 ATP         1.5595
      2 O1G         1.9434    3.6849   -8.0988 O.co2     1 ATP        -0.8438
      3 O2G         0.4481    4.3494   -6.0377 O.co2     1 ATP        -0.8438
      4 O3G        -0.3702    2.6562   -7.7655 O.3       1 ATP        -0.7800
      5 PB          0.7324    1.0973   -5.1086 P.3       1 ATP         1.9223
      6 O1B         0.3293    1.8242   -3.8599 O.2       1 ATP        -0.8953
      7 O2B        -0.4801    0.3933   -5.9136 O.3       1 ATP        -0.8165
      8 O3B         1.4605    2.0054   -6.2302 O.3       1 ATP        -0.8247
      9 PA          3.3342   -0.0516   -4.3262 P.3       1 ATP         1.6157
     10 O1A         4.1296    0.9783   -5.0986 O.co2     1 ATP        -0.8629
     11 O2A         3.8297   -1.4758   -4.1998 O.co2     1 ATP        -0.8629
     12 O3A         1.8112   -0.0892   -4.9136 O.3       1 ATP        -0.8191
     13 O5'         3.0213    0.5153   -2.8245 O.3       1 ATP        -0.5644
     14 C5'         2.2816   -0.2918   -1.9206 C.3       1 ATP         0.2062
     15 C4'         2.7248    0.0226   -0.4980 C.3       1 ATP         0.0971
     16 O4'         2.4697    1.4219   -0.2462 O.3       1 ATP        -0.3662
     17 C3'         1.9404   -0.7419    0.5596 C.3       1 ATP         0.0734
     18 O3'         2.7418   -0.8086    1.7389 O.3       1 ATP        -0.5671
     19 C2'         0.7477    0.1630    0.7858 C.3       1 ATP         0.0745
     20 O2'         0.1373   -0.0577    2.0407 O.3       1 ATP        -0.5794
     21 C1'         1.3733    1.5427    0.6747 C.3       1 ATP         0.3824
     22 N9          0.4520    2.5240    0.1767 N.pl3     1 ATP        -0.4324
     23 C8          0.5691    3.2215   -0.9485 C.ar      1 ATP         0.2662
     24 N7         -0.4499    4.0551   -1.1342 N.pl3     1 ATP        -0.4772
     25 C5         -1.2618    3.8674   -0.0512 C.ar      1 ATP        -0.1305
     26 C6         -2.5420    4.5007    0.3120 C.ar      1 ATP         0.7186
     27 N6         -3.0874    5.3993   -0.4432 N.2       1 ATP        -0.8115
     28 N1         -3.0494    4.0205    1.5133 N.pl3     1 ATP        -0.8400
     29 C2         -2.3933    3.0527    2.2567 C.ar      1 ATP         0.6671
     30 N3         -1.2611    2.4796    1.9536 N.2       1 ATP        -0.5806
     31 C4         -0.7334    2.9358    0.7669 C.ar      1 ATP         0.2748
     32 HOG3       -1.1211    2.3648   -7.2057 H         1 ATP         0.4327
     33 HOB2       -1.0145   -0.2935   -5.4609 H         1 ATP         0.4701
     34 H5'1        1.2163   -0.0770   -2.0471 H         1 ATP         0.0401
     35 H5'2        2.4655   -1.3443   -2.1563 H         1 ATP         0.0401
     36 H4'         3.8044   -0.1397   -0.4040 H         1 ATP         0.1136
     37 H3'         1.6764   -1.7639    0.2728 H         1 ATP         0.0693
     38 HO3'        2.2232   -1.2979    2.3953 H         1 ATP         0.4124
     39 H2'        -0.0011    0.0027    0.0003 H         1 ATP         0.0854
     40 HO2'       -0.1563   -0.9855    2.0596 H         1 ATP         0.4367
     41 H1'         1.7826    1.9024    1.6451 H         1 ATP         0.1343
     42 H8          1.3912    3.1285   -1.6365 H         1 ATP         0.3302
     43 HN62       -3.9637    5.7084   -0.0142 H         1 ATP         0.4160
     44 H2         -2.9317    2.7866    3.1796 H         1 ATP         0.0756
     45 H45        -3.9307    4.3923    1.8559 H         1 ATP         0.4587
     46 H46        -0.5835    4.6857   -1.9122 H         1 ATP         0.5254
@<TRIPOS>BOND
     1    1    2 2
     2    1    3 1
     3    1    4 1
     4    1    8 1
     5    4   32 1
     6    5    6 2
     7    5    7 1
     8    5    8 1
     9    5   12 1
    10    7   33 1
    11    9   10 2
    12    9   11 1
    13    9   12 1
    14    9   13 1
    15   13   14 1
    16   14   15 1
    17   14   34 1
    18   14   35 1
    19   15   16 1
    20   15   17 1
    21   15   36 1
    22   16   21 1
    23   17   18 1
    24   17   19 1
    25   17   37 1
    26   18   38 1
    27   19   20 1
    28   19   21 1
    29   19   39 1
    30   20   40 1
    31   21   22 1
    32   21   41 1
    33   22   23 ar
    34   22   31 ar
    35   23   24 ar
    36   23   42 1
    37   24   25 ar
    38   24   46 1
    39   25   26 ar
    40   25   31 ar
    41   26   27 2
    42   26   28 ar
    43   27   43 1
    44   28   29 ar
    45   28   45 1
    46   29   30 ar
    47   29   44 1
    48   30   31 ar
@<TRIPOS>SUBSTRUCTURE
     1 ATP         1 GROUP 0 A     ****
@<TRIPOS>MOLECULE
[[[3,4-dihydroxy-5-(6-imino-7,8-dihydro-1~{H}-purin-8-ylium-9-yl)tetrahydrofuran-2-yl]methoxy-oxido-phosphoryl]oxy-hydroxy-phosphoryl] hydrogen phosphate
   46    48     1     0     0
SMALL
USER_CHARGES

@<TRIPOS>ATOM
      1 PG         -5.7634   -8.7339    3.6296 P.3       1 ATP         1.5595
      2 O1G        -7.1506   -8.3420    3.1715 O.co2     1 ATP        -0.8438
      3 O2G        -5.4942   -9.0912    5.0743 O.co2     1 ATP        -0.8438
      4 O3G        -5.2319   -9.9558    2.6857 O.3       1 ATP        -0.7800
      5 PB         -4.5543   -6.0440    3.6316 P.3       1 ATP         1.9223
      6 O1B        -5.7571   -5.1796    3.3943 O.2       1 ATP        -0.8953
      7 O2B        -4.0878   -6.1604    5.1752 O.3       1 ATP        -0.8165
      8 O3B        -4.7075   -7.5827    3.1607 O.3       1 ATP        -0.8247
      9 PA         -1.7207   -6.2768    2.8457 P.3       1 ATP         1.6157
     10 O1A        -1.8041   -7.6468    2.2084 O.co2     1 ATP        -0.8629
     11 O2A        -1.1159   -6.0993    4.2214 O.co2     1 ATP        -0.8629
     12 O3A        -3.2097   -5.6068    2.8503 O.3       1 ATP        -0.8191
     13 O5'        -0.9724   -5.2440    1.8220 O.3       1 ATP        -0.5644
     14 C5'        -0.7840   -3.8935    2.2172 C.3       1 ATP         0.2062
     15 C4'        -0.0724   -3.1466    1.1027 C.3       1 ATP         0.0971
     16 O4'        -0.8674   -3.1929   -0.0945 O.3       1 ATP        -0.3662
     17 C3'         0.1338   -1.6715    1.4027 C.3       1 ATP         0.0734
     18 O3'         1.2893   -1.4445    2.1808 O.3       1 ATP        -0.5671
     19 C2'         0.2158   -1.0724    0.0128 C.3       1 ATP         0.0745
     20 O2'         1.5141   -1.2448   -0.5513 O.3       1 ATP        -0.5794
     21 C1'        -0.7897   -1.9176   -0.7583 C.3       1 ATP         0.3824
     22 N9         -2.1040   -1.3333   -0.7704 N.pl3     1 ATP        -0.4324
     23 C8         -3.0590   -1.5123    0.1363 C.ar      1 ATP         0.2662
     24 N7         -4.1655   -0.8354   -0.1554 N.pl3     1 ATP        -0.4772
     25 C5         -3.8852   -0.1874   -1.3253 C.ar      1 ATP        -0.1305
     26 C6         -4.7113    0.7160   -2.1458 C.ar      1 ATP         0.7186
     27 N6         -5.9213    1.0209   -1.8021 N.2       1 ATP        -0.8115
     28 N1         -4.0411    1.1673   -3.2764 N.pl3     1 ATP        -0.8400
     29 C2         -2.7403    0.7865   -3.5638 C.ar      1 ATP         0.6671
     30 N3         -1.9921   -0.0108   -2.8519 N.2       1 ATP        -0.5806
     31 C4         -2.6302   -0.4747   -1.7239 C.ar      1 ATP         0.2748
     32 HOG3       -4.3396  -10.3247    2.8584 H         1 ATP         0.4327
     33 HOB2       -4.7152   -6.5269    5.8342 H         1 ATP         0.4701
     34 H5'1       -1.7618   -3.4448    2.4164 H         1 ATP         0.0401
     35 H5'2       -0.1874   -3.8744    3.1341 H         1 ATP         0.0401
     36 H4'         0.8874   -3.6466    0.8805 H         1 ATP         0.1136
     37 H3'        -0.7376   -1.2333    1.9867 H         1 ATP         0.0693
     38 HO3'        1.3408   -0.4870    2.3219 H         1 ATP         0.4124
     39 H2'        -0.0384   -0.0310    0.0096 H         1 ATP         0.0854
     40 HO2'        2.1463   -0.7958    0.0370 H         1 ATP         0.4367
     41 H1'        -0.4769   -2.1002   -1.8093 H         1 ATP         0.1343
     42 H8         -2.9569   -2.1323    1.0098 H         1 ATP         0.3302
     43 HN62       -6.3169    1.6552   -2.5012 H         1 ATP         0.4160
     44 H2         -2.3612    1.2343   -4.4957 H         1 ATP         0.0756
     45 H45        -4.5223    1.7976   -3.9117 H         1 ATP         0.4587
     46 H46        -5.0218   -0.8132    0.3804 H         1 ATP         0.5254
@<TRIPOS>BOND
     1    1    2 2
     2    1    3 1
     3    1    4 1
     4    1    8 1
     5    4   32 1
     6    5    6 2
     7    5    7 1
     8    5    8 1
     9    5   12 1
    10    7   33 1
    11    9   10 2
    12    9   11 1
    13    9   12 1
    14    9   13 1
    15   13   14 1
    16   14   15 1
    17   14   34 1
    18   14   35 1
    19   15   16 1
    20   15   17 1
    21   15   36 1
    22   16   21 1
    23   17   18 1
    24   17   19 1
    25   17   37 1
    26   18   38 1
    27   19   20 1
    28   19   21 1
    29   19   39 1
    30   20   40 1
    31   21   22 1
    32   21   41 1
    33   22   23 ar
    34   22   31 ar
    35   23   24 ar
    36   23   42 1
    37   24   25 ar
    38   24   46 1
    39   25   26 ar
    40   25   31 ar
    41   26   27 2
    42   26   28 ar
    43   27   43 1
    44   28   29 ar
    45   28   45 1
    46   29   30 ar
    47   29   44 1
    48   30   31 ar
@<TRIPOS>SUBSTRUCTURE
     1 ATP         1 GROUP 0 A     ****
@<TRIPOS>MOLECULE
[[[3,4-dihydroxy-5-(6-imino-7,8-dihydro-1~{H}-purin-8-ylium-9-yl)tetrahydrofuran-2-yl]methoxy-oxido-phosphoryl]oxy-hydroxy-phosphoryl] hydrogen phosphate
   46    48     1     0     0
SMALL
USER_CHARGES

@<TRIPOS>ATOM
      1 PG         -1.9735   -3.1264    9.2588 P.3       1 ATP         1.5595
      2 O1G        -2.5949   -4.3883    9.8149 O.co2     1 ATP        -0.8438
      3 O2G        -2.6297   -1.7799    9.4678 O.co2     1 ATP        -0.8438
      4 O3G        -0.4285   -3.0366    9.7794 O.3       1 ATP        -0.7800
      5 PB         -2.7103   -3.5159    6.4297 P.3       1 ATP         1.9223
      6 O1B        -3.6254   -4.7008    6.5236 O.2       1 ATP        -0.8953
      7 O2B        -3.4523   -2.0826    6.3358 O.3       1 ATP        -0.8165
      8 O3B        -1.6858   -3.3365    7.6672 O.3       1 ATP        -0.8247
      9 PA         -0.5251   -4.5707    4.7523 P.3       1 ATP         1.6157
     10 O1A        -1.1708   -5.8915    4.3939 O.co2     1 ATP        -0.8629
     11 O2A         0.5743   -4.5036    5.7899 O.co2     1 ATP        -0.8629
     12 O3A        -1.6935   -3.5111    5.1745 O.3       1 ATP        -0.8191
     13 O5'         0.0118   -3.8395    3.3916 O.3       1 ATP        -0.5644
     14 C5'        -0.7840   -3.8935    2.2172 C.3       1 ATP         0.2062
     15 C4'        -0.0724   -3.1466    1.1027 C.3       1 ATP         0.0971
     16 O4'        -0.8674   -3.1929   -0.0945 O.3       1 ATP        -0.3662
     17 C3'         0.1338   -1.6715    1.4027 C.3       1 ATP         0.0734
     18 O3'         1.2893   -1.4445    2.1808 O.3       1 ATP        -0.5671
     19 C2'         0.2158   -1.0724    0.0128 C.3       1 ATP         0.0745
     20 O2'         1.5141   -1.2448   -0.5513 O.3       1 ATP        -0.5794
     21 C1'        -0.7897   -1.9176   -0.7583 C.3       1 ATP         0.3824
     22 N9         -2.1040   -1.3333   -0.7704 N.pl3     1 ATP        -0.4324
     23 C8         -3.0590   -1.5123    0.1363 C.ar      1 ATP         0.2662
     24 N7         -4.1655   -0.8354   -0.1554 N.pl3     1 ATP        -0.4772
     25 C5         -3.8852   -0.1874   -1.3253 C.ar      1 ATP        -0.1305
     26 C6         -4.7113    0.7160   -2.1458 C.ar      1 ATP         0.7186
     27 N6         -5.9213    1.0209   -1.8021 N.2       1 ATP        -0.8115
     28 N1         -4.0411    1.1673   -3.2764 N.pl3     1 ATP        -0.8400
     29 C2         -2.7403    0.7865   -3.5638 C.ar      1 ATP         0.6671
     30 N3         -1.9921   -0.0108   -2.8519 N.2       1 ATP        -0.5806
     31 C4         -2.6302   -0.4747   -1.7239 C.ar      1 ATP         0.2748
     32 HOG3        0.1137   -2.2678    9.5016 H         1 ATP         0.4327
     33 HOB2       -4.0593   -1.9109    5.5846 H         1 ATP         0.4701
     34 H5'1       -0.9348   -4.9415    1.9415 H         1 ATP         0.0401
     35 H5'2       -1.7548   -3.4350    2.4278 H         1 ATP         0.0401
     36 H4'         0.8874   -3.6466    0.8805 H         1 ATP         0.1136
     37 H3'        -0.7376   -1.2333    1.9867 H         1 ATP         0.0693
     38 HO3'        1.3408   -0.4870    2.3219 H         1 ATP         0.4124
     39 H2'        -0.0384   -0.0310    0.0096 H         1 ATP         0.0854
     40 HO2'        2.1463   -0.7958    0.0370 H         1 ATP         0.4367
     41 H1'        -0.4769   -2.1002   -1.8093 H         1 ATP         0.1343
     42 H8         -2.9569   -2.1323    1.0098 H         1 ATP         0.3302
     43 HN62       -6.3169    1.6552   -2.5012 H         1 ATP         0.4160
     44 H2         -2.3612    1.2343   -4.4957 H         1 ATP         0.0756
     45 H45        -4.5223    1.7976   -3.9117 H         1 ATP         0.4587
     46 H46        -5.0218   -0.8132    0.3804 H         1 ATP         0.5254
@<TRIPOS>BOND
     1    1    2 2
     2    1    3 1
     3    1    4 1
     4    1    8 1
     5    4   32 1
     6    5    6 2
     7    5    7 1
     8    5    8 1
     9    5   12 1
    10    7   33 1
    11    9   10 2
    12    9   11 1
    13    9   12 1
    14    9   13 1
    15   13   14 1
    16   14   15 1
    17   14   34 1
    18   14   35 1
    19   15   16 1
    20   15   17 1
    21   15   36 1
    22   16   21 1
    23   17   18 1
    24   17   19 1
    25   17   37 1
    26   18   38 1
    27   19   20 1
    28   19   21 1
    29   19   39 1
    30   20   40 1
    31   21   22 1
    32   21   41 1
    33   22   23 ar
    34   22   31 ar
    35   23   24 ar
    36   23   42 1
    37   24   25 ar
    38   24   46 1
    39   25   26 ar
    40   25   31 ar
    41   26   27 2
    42   26   28 ar
    43   27   43 1
    44   28   29 ar
    45   28   45 1
    46   29   30 ar
    47   29   44 1
    48   30   31 ar
@<TRIPOS>SUBSTRUCTURE
     1 ATP         1 GROUP 0 A     ****
@<TRIPOS>MOLECULE
[[[3,4-dihydroxy-5-(6-imino-7,8-dihydro-1~{H}-purin-8-ylium-9-yl)tetrahydrofuran-2-yl]methoxy-oxido-phosphoryl]oxy-hydroxy-phosphoryl] hydrogen phosphate
   46    48     1     0     0
SMALL
USER_CHARGES

@<TRIPOS>ATOM
      1 PG          3.7397   -4.0259   -6.2837 P.3       1 ATP         1.5595
      2 O1G         3.0177   -5.3367   -6.5035 O.co2     1 ATP        -0.8438
      3 O2G         4.9689   -3.9537   -5.4055 O.co2     1 ATP        -0.8438
      4 O3G         4.1048   -3.3848   -7.7403 O.3       1 ATP        -0.7800
      5 PB          2.8350   -1.3179   -5.5447 P.3       1 ATP         1.9223
      6 O1B         3.2460   -0.5295   -6.7529 O.2       1 ATP        -0.8953
      7 O2B         1.4273   -0.8756   -4.8841 O.3       1 ATP        -0.8165
      8 O3B         2.6629   -2.9072   -5.7845 O.3       1 ATP        -0.8247
      9 PA          4.4373   -0.0468   -3.4192 P.3       1 ATP         1.6157
     10 O1A         5.0360    0.9823   -4.3533 O.co2     1 ATP        -0.8629
     11 O2A         5.2434   -0.6082   -2.2682 O.co2     1 ATP        -0.8629
     12 O3A         3.8709   -1.2957   -4.3054 O.3       1 ATP        -0.8191
     13 O5'         3.0213    0.5153   -2.8245 O.3       1 ATP        -0.5644
     14 C5'         2.2816   -0.2918   -1.9206 C.3       1 ATP         0.2062
     15 C4'         2.7248    0.0226   -0.4980 C.3       1 ATP         0.0971
     16 O4'         2.4697    1.4219   -0.2462 O.3       1 ATP        -0.3662
     17 C3'         1.9404   -0.7419    0.5596 C.3       1 ATP         0.0734
     18 O3'         2.7418   -0.8086    1.7389 O.3       1 ATP        -0.5671
     19 C2'         0.7477    0.1630    0.7858 C.3       1 ATP         0.0745
     20 O2'         0.1373   -0.0577    2.0407 O.3       1 ATP        -0.5794
     21 C1'         1.3733    1.5427    0.6747 C.3       1 ATP         0.3824
     22 N9          0.4520    2.5240    0.1767 N.pl3     1 ATP        -0.4324
     23 C8          0.2216    2.8192   -1.0985 C.ar      1 ATP         0.2662
     24 N7         -0.6906    3.7763   -1.2384 N.pl3     1 ATP        -0.4772
     25 C5         -1.0575    4.1037    0.0366 C.ar      1 ATP        -0.1305
     26 C6         -2.0291    5.0943    0.5330 C.ar      1 ATP         0.7186
     27 N6         -2.7093    5.8371   -0.2800 N.2       1 ATP        -0.8115
     28 N1         -2.1051    5.1136    1.9204 N.pl3     1 ATP        -0.8400
     29 C2         -1.3354    4.2774    2.7129 C.ar      1 ATP         0.6671
     30 N3         -0.4707    3.3945    2.2944 N.2       1 ATP        -0.5806
     31 C4         -0.3734    3.3525    0.9220 C.ar      1 ATP         0.2748
     32 HOG3        4.5789   -2.5264   -7.7668 H         1 ATP         0.4327
     33 HOB2        1.3262    0.0421   -4.5526 H         1 ATP         0.4701
     34 H5'1        1.2163   -0.0770   -2.0471 H         1 ATP         0.0401
     35 H5'2        2.4655   -1.3443   -2.1563 H         1 ATP         0.0401
     36 H4'         3.8044   -0.1397   -0.4040 H         1 ATP         0.1136
     37 H3'         1.6764   -1.7639    0.2728 H         1 ATP         0.0693
     38 HO3'        2.2232   -1.2979    2.3953 H         1 ATP         0.4124
     39 H2'        -0.0011    0.0027    0.0003 H         1 ATP         0.0854
     40 HO2'       -0.6141    0.5574    2.1082 H         1 ATP         0.4367
     41 H1'         1.7826    1.9024    1.6451 H         1 ATP         0.1343
     42 H8          0.7125    2.3429   -1.9292 H         1 ATP         0.3302
     43 HN62       -3.3217    6.4517    0.2629 H         1 ATP         0.4160
     44 H2         -1.5188    4.4223    3.7890 H         1 ATP         0.0756
     45 H45        -2.7470    5.7627    2.3665 H         1 ATP         0.4587
     46 H46        -1.0305    4.1680   -2.1054 H         1 ATP         0.5254
@<TRIPOS>BOND
     1    1    2 2
     2    1    3 1
     3    1    4 1
     4    1    8 1
     5    4   32 1
     6    5    6 2
     7    5    7 1
     8    5    8 1
     9    5   12 1
    10    7   33 1
    11    9   10 2
    12    9   11 1
    13    9   12 1
    14    9   13 1
    15   13   14 1
    16   14   15 1
    17   14   34 1
    18   14   35 1
    19   15   16 1
    20   15   17 1
    21   15   36 1
    22   16   21 1
    23   17   18 1
    24   17   19 1
    25   17   37 1
    26   18   38 1
    27   19   20 1
    28   19   21 1
    29   19   39 1
    30   20   40 1
    31   21   22 1
    32   21   41 1
    33   22   23 ar
    34   22   31 ar
    35   23   24 ar
    36   23   42 1
    37   24   25 ar
    38   24   46 1
    39   25   26 ar
    40   25   31 ar
    41   26   27 2
    42   26   28 ar
    43   27   43 1
    44   28   29 ar
    45   28   45 1
    46   29   30 ar
    47   29   44 1
    48   30   31 ar
@<TRIPOS>SUBSTRUCTURE
     1 ATP         1 GROUP 0 A     ****
@<TRIPOS>MOLECULE
[[[3,4-dihydroxy-5-(6-imino-7,8-dihydro-1~{H}-purin-8-ylium-9-yl)tetrahydrofuran-2-yl]methoxy-oxido-phosphoryl]oxy-hydroxy-phosphoryl] hydrogen phosphate
   46    48     1     0     0
SMALL
USER_CHARGES

@<TRIPOS>ATOM
      1 PG         -0.5296   -3.3160   -6.6863 P.3       1 ATP         1.5595
      2 O1G        -1.0171   -4.4607   -5.8263 O.co2     1 ATP        -0.8438
      3 O2G         0.0432   -3.5678   -8.0632 O.co2     1 ATP        -0.8438
      4 O3G        -1.7312   -2.2182   -6.8175 O.3       1 ATP        -0.7800
      5 PB          1.2428   -1.0148   -6.1754 P.3       1 ATP         1.9223
      6 O1B         2.0964   -1.0202   -7.4090 O.2       1 ATP        -0.8953
      7 O2B         0.0194    0.0419   -6.1931 O.3       1 ATP        -0.8165
      8 O3B         0.5285   -2.4220   -5.8254 O.3       1 ATP        -0.8247
      9 PA          2.8619    0.6169   -4.3269 P.3       1 ATP         1.6157
     10 O1A         1.9202    1.7974   -4.2284 O.co2     1 ATP        -0.8629
     11 O2A         4.1141    0.6950   -5.1728 O.co2     1 ATP        -0.8629
     12 O3A         2.0115   -0.6976   -4.7905 O.3       1 ATP        -0.8191
     13 O5'         3.2903    0.1346   -2.8241 O.3       1 ATP        -0.5644
     14 C5'         2.2816   -0.2918   -1.9206 C.3       1 ATP         0.2062
     15 C4'         2.7248    0.0226   -0.4980 C.3       1 ATP         0.0971
     16 O4'         2.4697    1.4219   -0.2462 O.3       1 ATP        -0.3662
     17 C3'         1.9404   -0.7419    0.5596 C.3       1 ATP         0.0734
     18 O3'         2.7418   -0.8086    1.7389 O.3       1 ATP        -0.5671
     19 C2'         0.7477    0.1630    0.7858 C.3       1 ATP         0.0745
     20 O2'         0.1373   -0.0577    2.0407 O.3       1 ATP        -0.5794
     21 C1'         1.3733    1.5427    0.6747 C.3       1 ATP         0.3824
     22 N9          0.4520    2.5240    0.1767 N.pl3     1 ATP        -0.4324
     23 C8         -0.2004    2.4829   -0.9804 C.ar      1 ATP         0.2662
     24 N7         -0.9830    3.5431   -1.1568 N.pl3     1 ATP        -0.4772
     25 C5         -0.8095    4.3012   -0.0331 C.ar      1 ATP        -0.1305
     26 C6         -1.4065    5.5904    0.3585 C.ar      1 ATP         0.7186
     27 N6         -2.2501    6.2030   -0.4084 N.2       1 ATP        -0.8115
     28 N1         -0.9585    6.0272    1.5994 N.pl3     1 ATP        -0.8400
     29 C2         -0.0508    5.3009    2.3532 C.ar      1 ATP         0.6671
     30 N3          0.4890    4.1592    2.0257 N.2       1 ATP        -0.5806
     31 C4          0.0637    3.7006    0.7995 C.ar      1 ATP         0.2748
     32 HOG3       -1.5690   -1.4099   -7.3491 H         1 ATP         0.4327
     33 HOB2        0.2193    0.9976   -6.2872 H         1 ATP         0.4701
     34 H5'1        1.3514    0.2330   -2.1577 H         1 ATP         0.0401
     35 H5'2        2.1280   -1.3678   -2.0460 H         1 ATP         0.0401
     36 H4'         3.8044   -0.1397   -0.4040 H         1 ATP         0.1136
     37 H3'         1.6764   -1.7639    0.2728 H         1 ATP         0.0693
     38 HO3'        3.5554   -1.2733    1.4914 H         1 ATP         0.4124
     39 H2'        -0.0011    0.0027    0.0003 H         1 ATP         0.0854
     40 HO2'       -0.1563   -0.9855    2.0596 H         1 ATP         0.4367
     41 H1'         1.7826    1.9024    1.6451 H         1 ATP         0.1343
     42 H8         -0.1116    1.6863   -1.6984 H         1 ATP         0.3302
     43 HN62       -2.5420    7.0730    0.0447 H         1 ATP         0.4160
     44 H2          0.1969    5.7893    3.3086 H         1 ATP         0.0756
     45 H45        -1.3097    6.9080    1.9642 H         1 ATP         0.4587
     46 H46        -1.5735    3.7351   -1.9538 H         1 ATP         0.5254
@<TRIPOS>BOND
     1    1    2 2
     2    1    3 1
     3    1    4 1
     4    1    8 1
     5    4   32 1
     6    5    6 2
     7    5    7 1
     8    5    8 1
     9    5   12 1
    10    7   33 1
    11    9   10 2
    12    9   11 1
    13    9   12 1
    14    9   13 1
    15   13   14 1
    16   14   15 1
    17   14   34 1
    18   14   35 1
    19   15   16 1
    20   15   17 1
    21   15   36 1
    22   16   21 1
    23   17   18 1
    24   17   19 1
    25   17   37 1
    26   18   38 1
    27   19   20 1
    28   19   21 1
    29   19   39 1
    30   20   40 1
    31   21   22 1
    32   21   41 1
    33   22   23 ar
    34   22   31 ar
    35   23   24 ar
    36   23   42 1
    37   24   25 ar
    38   24   46 1
    39   25   26 ar
    40   25   31 ar
    41   26   27 2
    42   26   28 ar
    43   27   43 1
    44   28   29 ar
    45   28   45 1
    46   29   30 ar
    47   29   44 1
    48   30   31 ar
@<TRIPOS>SUBSTRUCTURE
     1 ATP         1 GROUP 0 A     ****
@<TRIPOS>MOLECULE
[[[3,4-dihydroxy-5-(6-imino-7,8-dihydro-1~{H}-purin-8-ylium-9-yl)tetrahydrofuran-2-yl]methoxy-oxido-phosphoryl]oxy-hydroxy-phosphoryl] hydrogen phosphate
   46    48     1     0     0
SMALL
USER_CHARGES

@<TRIPOS>ATOM
      1 PG          1.2268   -4.2892   -4.8294 P.3       1 ATP         1.5595
      2 O1G         1.4977   -5.4190   -3.8611 O.co2     1 ATP        -0.8438
      3 O2G         0.1892   -4.4328   -5.9204 O.co2     1 ATP        -0.8438
      4 O3G         0.8939   -2.9402   -3.9718 O.3       1 ATP        -0.7800
      5 PB          4.0288   -3.3693   -4.8046 P.3       1 ATP         1.9223
      6 O1B         4.6727   -4.4081   -3.9347 O.2       1 ATP        -0.8953
      7 O2B         4.9295   -2.8621   -6.0475 O.3       1 ATP        -0.8165
      8 O3B         2.6377   -3.8156   -5.4965 O.3       1 ATP        -0.8247
      9 PA          4.4788   -0.9084   -3.2416 P.3       1 ATP         1.6157
     10 O1A         5.4276   -0.2318   -4.2069 O.co2     1 ATP        -0.8629
     11 O2A         4.9965   -1.5641   -1.9800 O.co2     1 ATP        -0.8629
     12 O3A         3.5881   -2.0049   -4.0605 O.3       1 ATP        -0.8191
     13 O5'         3.2903    0.1346   -2.8241 O.3       1 ATP        -0.5644
     14 C5'         2.2816   -0.2918   -1.9206 C.3       1 ATP         0.2062
     15 C4'         2.7248    0.0226   -0.4980 C.3       1 ATP         0.0971
     16 O4'         2.4697    1.4219   -0.2462 O.3       1 ATP        -0.3662
     17 C3'         1.9404   -0.7419    0.5596 C.3       1 ATP         0.0734
     18 O3'         2.7418   -0.8086    1.7389 O.3       1 ATP        -0.5671
     19 C2'         0.7477    0.1630    0.7858 C.3       1 ATP         0.0745
     20 O2'         0.1373   -0.0577    2.0407 O.3       1 ATP        -0.5794
     21 C1'         1.3733    1.5427    0.6747 C.3       1 ATP         0.3824
     22 N9          0.4520    2.5240    0.1767 N.pl3     1 ATP        -0.4324
     23 C8          0.2216    2.8192   -1.0985 C.ar      1 ATP         0.2662
     24 N7         -0.6906    3.7763   -1.2384 N.pl3     1 ATP        -0.4772
     25 C5         -1.0575    4.1037    0.0366 C.ar      1 ATP        -0.1305
     26 C6         -2.0291    5.0943    0.5330 C.ar      1 ATP         0.7186
     27 N6         -2.7093    5.8371   -0.2800 N.2       1 ATP        -0.8115
     28 N1         -2.1051    5.1136    1.9204 N.pl3     1 ATP        -0.8400
     29 C2         -1.3354    4.2774    2.7129 C.ar      1 ATP         0.6671
     30 N3         -0.4707    3.3945    2.2944 N.2       1 ATP        -0.5806
     31 C4         -0.3734    3.3525    0.9220 C.ar      1 ATP         0.2748
     32 HOG3        0.6947   -2.1135   -4.4608 H         1 ATP         0.4327
     33 HOB2        5.7970   -2.4423   -5.8647 H         1 ATP         0.4701
     34 H5'1        1.3514    0.2330   -2.1577 H         1 ATP         0.0401
     35 H5'2        2.1280   -1.3678   -2.0460 H         1 ATP         0.0401
     36 H4'         3.8044   -0.1397   -0.4040 H         1 ATP         0.1136
     37 H3'         1.6764   -1.7639    0.2728 H         1 ATP         0.0693
     38 HO3'        2.2232   -1.2979    2.3953 H         1 ATP         0.4124
     39 H2'        -0.0011    0.0027    0.0003 H         1 ATP         0.0854
     40 HO2'       -0.6141    0.5574    2.1082 H         1 ATP         0.4367
     41 H1'         1.7826    1.9024    1.6451 H         1 ATP         0.1343
     42 H8          0.7125    2.3429   -1.9292 H         1 ATP         0.3302
     43 HN62       -3.3217    6.4517    0.2629 H         1 ATP         0.4160
     44 H2         -1.5188    4.4223    3.7890 H         1 ATP         0.0756
     45 H45        -2.7470    5.7627    2.3665 H         1 ATP         0.4587
     46 H46        -1.0305    4.1680   -2.1054 H         1 ATP         0.5254
@<TRIPOS>BOND
     1    1    2 2
     2    1    3 1
     3    1    4 1
     4    1    8 1
     5    4   32 1
     6    5    6 2
     7    5    7 1
     8    5    8 1
     9    5   12 1
    10    7   33 1
    11    9   10 2
    12    9   11 1
    13    9   12 1
    14    9   13 1
    15   13   14 1
    16   14   15 1
    17   14   34 1
    18   14   35 1
    19   15   16 1
    20   15   17 1
    21   15   36 1
    22   16   21 1
    23   17   18 1
    24   17   19 1
    25   17   37 1
    26   18   38 1
    27   19   20 1
    28   19   21 1
    29   19   39 1
    30   20   40 1
    31   21   22 1
    32   21   41 1
    33   22   23 ar
    34   22   31 ar
    35   23   24 ar
    36   23   42 1
    37   24   25 ar
    38   24   46 1
    39   25   26 ar
    40   25   31 ar
    41   26   27 2
    42   26   28 ar
    43   27   43 1
    44   28   29 ar
    45   28   45 1
    46   29   30 ar
    47   29   44 1
    48   30   31 ar
@<TRIPOS>SUBSTRUCTURE
     1 ATP         1 GROUP 0 A     ****
@<TRIPOS>MOLECULE
[[[3,4-dihydroxy-5-(6-imino-7,8-dihydro-1~{H}-purin-8-ylium-9-yl)tetrahydrofuran-2-yl]methoxy-oxido-phosphoryl]oxy-hydroxy-phosphoryl] hydrogen phosphate
   46    48     1     0     0
SMALL
USER_CHARGES

@<TRIPOS>ATOM
      1 PG          1.2142   -2.7454   -7.2070 P.3       1 ATP         1.5595
      2 O1G         2.3690   -3.5207   -6.6129 O.co2     1 ATP        -0.8438
      3 O2G         1.3109   -2.1477   -8.5929 O.co2     1 ATP        -0.8438
      4 O3G        -0.1257   -3.6759   -7.1361 O.3       1 ATP        -0.7800
      5 PB          1.5445   -0.2592   -5.6554 P.3       1 ATP         1.9223
      6 O1B         1.9079    0.7165   -6.7353 O.2       1 ATP        -0.8953
      7 O2B         0.5910    0.3311   -4.4909 O.3       1 ATP        -0.8165
      8 O3B         0.7628   -1.5823   -6.1565 O.3       1 ATP        -0.8247
      9 PA          3.9552   -0.2066   -3.9564 P.3       1 ATP         1.6157
     10 O1A         4.6399    0.8510   -4.7947 O.co2     1 ATP        -0.8629
     11 O2A         4.7577   -1.2974   -3.2811 O.co2     1 ATP        -0.8629
     12 O3A         2.7844   -0.9106   -4.8506 O.3       1 ATP        -0.8191
     13 O5'         3.0213    0.5153   -2.8245 O.3       1 ATP        -0.5644
     14 C5'         2.2816   -0.2918   -1.9206 C.3       1 ATP         0.2062
     15 C4'         2.7248    0.0226   -0.4980 C.3       1 ATP         0.0971
     16 O4'         2.4697    1.4219   -0.2462 O.3       1 ATP        -0.3662
     17 C3'         1.9404   -0.7419    0.5596 C.3       1 ATP         0.0734
     18 O3'         2.7418   -0.8086    1.7389 O.3       1 ATP        -0.5671
     19 C2'         0.7477    0.1630    0.7858 C.3       1 ATP         0.0745
     20 O2'         0.1373   -0.0577    2.0407 O.3       1 ATP        -0.5794
     21 C1'         1.3733    1.5427    0.6747 C.3       1 ATP         0.3824
     22 N9          0.4520    2.5240    0.1767 N.pl3     1 ATP        -0.4324
     23 C8         -0.2004    2.4829   -0.9804 C.ar      1 ATP         0.2662
     24 N7         -0.9830    3.5431   -1.1568 N.pl3     1 ATP        -0.4772
     25 C5         -0.8095    4.3012   -0.0331 C.ar      1 ATP        -0.1305
     26 C6         -1.4065    5.5904    0.3585 C.ar      1 ATP         0.7186
     27 N6         -2.2501    6.2030   -0.4084 N.2       1 ATP        -0.8115
     28 N1         -0.9585    6.0272    1.5994 N.pl3     1 ATP        -0.8400
     29 C2         -0.0508    5.3009    2.3532 C.ar      1 ATP         0.6671
     30 N3          0.4890    4.1592    2.0257 N.2       1 ATP        -0.5806
     31 C4          0.0637    3.7006    0.7995 C.ar      1 ATP         0.2748
     32 HOG3       -0.9664   -3.3110   -7.4858 H         1 ATP         0.4327
     33 HOB2       -0.2929    0.6807   -4.7332 H         1 ATP         0.4701
     34 H5'1        1.2163   -0.0770   -2.0471 H         1 ATP         0.0401
     35 H5'2        2.4655   -1.3443   -2.1563 H         1 ATP         0.0401
     36 H4'         3.8044   -0.1397   -0.4040 H         1 ATP         0.1136
     37 H3'         1.6764   -1.7639    0.2728 H         1 ATP         0.0693
     38 HO3'        2.2232   -1.2979    2.3953 H         1 ATP         0.4124
     39 H2'        -0.0011    0.0027    0.0003 H         1 ATP         0.0854
     40 HO2'       -0.6141    0.5574    2.1082 H         1 ATP         0.4367
     41 H1'         1.7826    1.9024    1.6451 H         1 ATP         0.1343
     42 H8         -0.1116    1.6863   -1.6984 H         1 ATP         0.3302
     43 HN62       -2.5420    7.0730    0.0447 H         1 ATP         0.4160
     44 H2          0.1969    5.7893    3.3086 H         1 ATP         0.0756
     45 H45        -1.3097    6.9080    1.9642 H         1 ATP         0.4587
     46 H46        -1.5735    3.7351   -1.9538 H         1 ATP         0.5254
@<TRIPOS>BOND
     1    1    2 2
     2    1    3 1
     3    1    4 1
     4    1    8 1
     5    4   32 1
     6    5    6 2
     7    5    7 1
     8    5    8 1
     9    5   12 1
    10    7   33 1
    11    9   10 2
    12    9   11 1
    13    9   12 1
    14    9   13 1
    15   13   14 1
    16   14   15 1
    17   14   34 1
    18   14   35 1
    19   15   16 1
    20   15   17 1
    21   15   36 1
    22   16   21 1
    23   17   18 1
    24   17   19 1
    25   17   37 1
    26   18   38 1
    27   19   20 1
    28   19   21 1
    29   19   39 1
    30   20   40 1
    31   21   22 1
    32   21   41 1
    33   22   23 ar
    34   22   31 ar
    35   23   24 ar
    36   23   42 1
    37   24   25 ar
    38   24   46 1
    39   25   26 ar
    40   25   31 ar
    41   26   27 2
    42   26   28 ar
    43   27   43 1
    44   28   29 ar
    45   28   45 1
    46   29   30 ar
    47   29   44 1
    48   30   31 ar
@<TRIPOS>SUBSTRUCTURE
     1 ATP         1 GROUP 0 A     ****
@<TRIPOS>MOLECULE
[[[3,4-dihydroxy-5-(6-imino-7,8-dihydro-1~{H}-purin-8-ylium-9-yl)tetrahydrofuran-2-yl]methoxy-oxido-phosphoryl]oxy-hydroxy-phosphoryl] hydrogen phosphate
   46    48     1     0     0
SMALL
USER_CHARGES

@<TRIPOS>ATOM
      1 PG          2.5134   -1.4803   -8.7959 P.3       1 ATP         1.5595
      2 O1G         3.9535   -1.5416   -9.2540 O.co2     1 ATP        -0.8438
      3 O2G         1.4964   -0.6437   -9.5397 O.co2     1 ATP        -0.8438
      4 O3G         1.9422   -3.0053   -8.6762 O.3       1 ATP        -0.7800
      5 PB          1.2428   -1.0148   -6.1754 P.3       1 ATP         1.9223
      6 O1B         0.1445   -0.0622   -6.5450 O.2       1 ATP        -0.8953
      7 O2B         0.7887   -2.5590   -6.0243 O.3       1 ATP        -0.8165
      8 O3B         2.4786   -1.0790   -7.2154 O.3       1 ATP        -0.8247
      9 PA          2.8619    0.6169   -4.3269 P.3       1 ATP         1.6157
     10 O1A         1.9202    1.7974   -4.2284 O.co2     1 ATP        -0.8629
     11 O2A         4.1141    0.6950   -5.1728 O.co2     1 ATP        -0.8629
     12 O3A         2.0115   -0.6976   -4.7905 O.3       1 ATP        -0.8191
     13 O5'         3.2903    0.1346   -2.8241 O.3       1 ATP        -0.5644
     14 C5'         2.2816   -0.2918   -1.9206 C.3       1 ATP         0.2062
     15 C4'         2.7248    0.0226   -0.4980 C.3       1 ATP         0.0971
     16 O4'         2.4697    1.4219   -0.2462 O.3       1 ATP        -0.3662
     17 C3'         1.9404   -0.7419    0.5596 C.3       1 ATP         0.0734
     18 O3'         2.7418   -0.8086    1.7389 O.3       1 ATP        -0.5671
     19 C2'         0.7477    0.1630    0.7858 C.3       1 ATP         0.0745
     20 O2'         0.1373   -0.0577    2.0407 O.3       1 ATP        -0.5794
     21 C1'         1.3733    1.5427    0.6747 C.3       1 ATP         0.3824
     22 N9          0.4520    2.5240    0.1767 N.pl3     1 ATP        -0.4324
     23 C8          0.5691    3.2215   -0.9485 C.ar      1 ATP         0.2662
     24 N7         -0.4499    4.0551   -1.1342 N.pl3     1 ATP        -0.4772
     25 C5         -1.2618    3.8674   -0.0512 C.ar      1 ATP        -0.1305
     26 C6         -2.5420    4.5007    0.3120 C.ar      1 ATP         0.7186
     27 N6         -3.0874    5.3993   -0.4432 N.2       1 ATP        -0.8115
     28 N1         -3.0494    4.0205    1.5133 N.pl3     1 ATP        -0.8400
     29 C2         -2.3933    3.0527    2.2567 C.ar      1 ATP         0.6671
     30 N3         -1.2611    2.4796    1.9536 N.2       1 ATP        -0.5806
     31 C4         -0.7334    2.9358    0.7669 C.ar      1 ATP         0.2748
     32 HOG3        1.0137   -3.1346   -8.3876 H         1 ATP         0.4327
     33 HOB2        0.1075   -2.7902   -5.3574 H         1 ATP         0.4701
     34 H5'1        1.3514    0.2330   -2.1577 H         1 ATP         0.0401
     35 H5'2        2.1280   -1.3678   -2.0460 H         1 ATP         0.0401
     36 H4'         3.8044   -0.1397   -0.4040 H         1 ATP         0.1136
     37 H3'         1.6764   -1.7639    0.2728 H         1 ATP         0.0693
     38 HO3'        2.2232   -1.2979    2.3953 H         1 ATP         0.4124
     39 H2'        -0.0011    0.0027    0.0003 H         1 ATP         0.0854
     40 HO2'       -0.1563   -0.9855    2.0596 H         1 ATP         0.4367
     41 H1'         1.7826    1.9024    1.6451 H         1 ATP         0.1343
     42 H8          1.3912    3.1285   -1.6365 H         1 ATP         0.3302
     43 HN62       -3.9637    5.7084   -0.0142 H         1 ATP         0.4160
     44 H2         -2.9317    2.7866    3.1796 H         1 ATP         0.0756
     45 H45        -3.9307    4.3923    1.8559 H         1 ATP         0.4587
     46 H46        -0.5835    4.6857   -1.9122 H         1 ATP         0.5254
@<TRIPOS>BOND
     1    1    2 2
     2    1    3 1
     3    1    4 1
     4    1    8 1
     5    4   32 1
     6    5    6 2
     7    5    7 1
     8    5    8 1
     9    5   12 1
    10    7   33 1
    11    9   10 2
    12    9   11 1
    13    9   12 1
    14    9   13 1
    15   13   14 1
    16   14   15 1
    17   14   34 1
    18   14   35 1
    19   15   16 1
    20   15   17 1
    21   15   36 1
    22   16   21 1
    23   17   18 1
    24   17   19 1
    25   17   37 1
    26   18   38 1
    27   19   20 1
    28   19   21 1
    29   19   39 1
    30   20   40 1
    31   21   22 1
    32   21   41 1
    33   22   23 ar
    34   22   31 ar
    35   23   24 ar
    36   23   42 1
    37   24   25 ar
    38   24   46 1
    39   25   26 ar
    40   25   31 ar
    41   26   27 2
    42   26   28 ar
    43   27   43 1
    44   28   29 ar
    45   28   45 1
    46   29   30 ar
    47   29   44 1
    48   30   31 ar
@<TRIPOS>SUBSTRUCTURE
     1 ATP         1 GROUP 0 A     ****
@<TRIPOS>MOLECULE
[[[3,4-dihydroxy-5-(6-imino-7,8-dihydro-1~{H}-purin-8-ylium-9-yl)tetrahydrofuran-2-yl]methoxy-oxido-phosphoryl]oxy-hydroxy-phosphoryl] hydrogen phosphate
   46    48     1     0     0
SMALL
USER_CHARGES

@<TRIPOS>ATOM
      1 PG          1.6548    1.3091   -6.5053 P.3       1 ATP         1.5595
      2 O1G         0.6205    1.9632   -5.6164 O.co2     1 ATP        -0.8438
      3 O2G         1.8419    1.7556   -7.9382 O.co2     1 ATP        -0.8438
      4 O3G         3.1011    1.3710   -5.7499 O.3       1 ATP        -0.7800
      5 PB          1.3294   -1.3301   -5.2300 P.3       1 ATP         1.9223
      6 O1B         0.2130   -1.0565   -4.2661 O.2       1 ATP        -0.8953
      7 O2B         1.2872   -2.7856   -5.9323 O.3       1 ATP        -0.8165
      8 O3B         1.4303   -0.3061   -6.4766 O.3       1 ATP        -0.8247
      9 PA          3.5300   -2.0728   -3.4114 P.3       1 ATP         1.6157
     10 O1A         4.9024   -1.4905   -3.1520 O.co2     1 ATP        -0.8629
     11 O2A         3.3570   -3.5495   -3.6925 O.co2     1 ATP        -0.8629
     12 O3A         2.8226   -1.2346   -4.6211 O.3       1 ATP        -0.8191
     13 O5'         2.5245   -1.6648   -2.1878 O.3       1 ATP        -0.5644
     14 C5'         2.2816   -0.2918   -1.9206 C.3       1 ATP         0.2062
     15 C4'         2.7248    0.0226   -0.4980 C.3       1 ATP         0.0971
     16 O4'         2.4697    1.4219   -0.2462 O.3       1 ATP        -0.3662
     17 C3'         1.9404   -0.7419    0.5596 C.3       1 ATP         0.0734
     18 O3'         2.7418   -0.8086    1.7389 O.3       1 ATP        -0.5671
     19 C2'         0.7477    0.1630    0.7858 C.3       1 ATP         0.0745
     20 O2'         0.1373   -0.0577    2.0407 O.3       1 ATP        -0.5794
     21 C1'         1.3733    1.5427    0.6747 C.3       1 ATP         0.3824
     22 N9          0.4520    2.5240    0.1767 N.pl3     1 ATP        -0.4324
     23 C8          0.2216    2.8192   -1.0985 C.ar      1 ATP         0.2662
     24 N7         -0.6906    3.7763   -1.2384 N.pl3     1 ATP        -0.4772
     25 C5         -1.0575    4.1037    0.0366 C.ar      1 ATP        -0.1305
     26 C6         -2.0291    5.0943    0.5330 C.ar      1 ATP         0.7186
     27 N6         -2.7093    5.8371   -0.2800 N.2       1 ATP        -0.8115
     28 N1         -2.1051    5.1136    1.9204 N.pl3     1 ATP        -0.8400
     29 C2         -1.3354    4.2774    2.7129 C.ar      1 ATP         0.6671
     30 N3         -0.4707    3.3945    2.2944 N.2       1 ATP        -0.5806
     31 C4         -0.3734    3.3525    0.9220 C.ar      1 ATP         0.2748
     32 HOG3        3.8808    0.9843   -6.2023 H         1 ATP         0.4327
     33 HOB2        0.5070   -3.0281   -6.4752 H         1 ATP         0.4701
     34 H5'1        2.8432    0.3119   -2.6398 H         1 ATP         0.0401
     35 H5'2        1.2128   -0.0927   -2.0428 H         1 ATP         0.0401
     36 H4'         3.8044   -0.1397   -0.4040 H         1 ATP         0.1136
     37 H3'         1.6764   -1.7639    0.2728 H         1 ATP         0.0693
     38 HO3'        3.5554   -1.2733    1.4914 H         1 ATP         0.4124
     39 H2'        -0.0011    0.0027    0.0003 H         1 ATP         0.0854
     40 HO2'       -0.1563   -0.9855    2.0596 H         1 ATP         0.4367
     41 H1'         1.7826    1.9024    1.6451 H         1 ATP         0.1343
     42 H8          0.7125    2.3429   -1.9292 H         1 ATP         0.3302
     43 HN62       -3.3217    6.4517    0.2629 H         1 ATP         0.4160
     44 H2         -1.5188    4.4223    3.7890 H         1 ATP         0.0756
     45 H45        -2.7470    5.7627    2.3665 H         1 ATP         0.4587
     46 H46        -1.0305    4.1680   -2.1054 H         1 ATP         0.5254
@<TRIPOS>BOND
     1    1    2 2
     2    1    3 1
     3    1    4 1
     4    1    8 1
     5    4   32 1
     6    5    6 2
     7    5    7 1
     8    5    8 1
     9    5   12 1
    10    7   33 1
    11    9   10 2
    12    9   11 1
    13    9   12 1
    14    9   13 1
    15   13   14 1
    16   14   15 1
    17   14   34 1
    18   14   35 1
    19   15   16 1
    20   15   17 1
    21   15   36 1
    22   16   21 1
    23   17   18 1
    24   17   19 1
    25   17   37 1
    26   18   38 1
    27   19   20 1
    28   19   21 1
    29   19   39 1
    30   20   40 1
    31   21   22 1
    32   21   41 1
    33   22   23 ar
    34   22   31 ar
    35   23   24 ar
    36   23   42 1
    37   24   25 ar
    38   24   46 1
    39   25   26 ar
    40   25   31 ar
    41   26   27 2
    42   26   28 ar
    43   27   43 1
    44   28   29 ar
    45   28   45 1
    46   29   30 ar
    47   29   44 1
    48   30   31 ar
@<TRIPOS>SUBSTRUCTURE
     1 ATP         1 GROUP 0 A     ****
@<TRIPOS>MOLECULE
[[[3,4-dihydroxy-5-(6-imino-7,8-dihydro-1~{H}-purin-8-ylium-9-yl)tetrahydrofuran-2-yl]methoxy-oxido-phosphoryl]oxy-hydroxy-phosphoryl] hydrogen phosphate
   46    48     1     0     0
SMALL
USER_CHARGES

@<TRIPOS>ATOM
      1 PG         -0.3596   -3.0932   -4.9459 P.3       1 ATP         1.5595
      2 O1G        -0.2423   -3.7953   -3.6114 O.co2     1 ATP        -0.8438
      3 O2G        -1.2842   -3.6182   -6.0214 O.co2     1 ATP        -0.8438
      4 O3G        -0.7174   -1.5231   -4.6757 O.3       1 ATP        -0.7800
      5 PB          2.4639   -2.2413   -4.9377 P.3       1 ATP         1.9223
      6 O1B         2.9662   -2.8963   -3.6851 O.2       1 ATP        -0.8953
      7 O2B         3.5107   -2.2250   -6.1696 O.3       1 ATP        -0.8165
      8 O3B         1.1330   -2.9015   -5.5747 O.3       1 ATP        -0.8247
      9 PA          2.8619    0.6169   -4.3269 P.3       1 ATP         1.6157
     10 O1A         1.9202    1.7974   -4.2284 O.co2     1 ATP        -0.8629
     11 O2A         4.1141    0.6950   -5.1728 O.co2     1 ATP        -0.8629
     12 O3A         2.0115   -0.6976   -4.7905 O.3       1 ATP        -0.8191
     13 O5'         3.2903    0.1346   -2.8241 O.3       1 ATP        -0.5644
     14 C5'         2.2816   -0.2918   -1.9206 C.3       1 ATP         0.2062
     15 C4'         2.7248    0.0226   -0.4980 C.3       1 ATP         0.0971
     16 O4'         2.4697    1.4219   -0.2462 O.3       1 ATP        -0.3662
     17 C3'         1.9404   -0.7419    0.5596 C.3       1 ATP         0.0734
     18 O3'         2.7418   -0.8086    1.7389 O.3       1 ATP        -0.5671
     19 C2'         0.7477    0.1630    0.7858 C.3       1 ATP         0.0745
     20 O2'         0.1373   -0.0577    2.0407 O.3       1 ATP        -0.5794
     21 C1'         1.3733    1.5427    0.6747 C.3       1 ATP         0.3824
     22 N9          0.4520    2.5240    0.1767 N.pl3     1 ATP        -0.4324
     23 C8          0.2216    2.8192   -1.0985 C.ar      1 ATP         0.2662
     24 N7         -0.6906    3.7763   -1.2384 N.pl3     1 ATP        -0.4772
     25 C5         -1.0575    4.1037    0.0366 C.ar      1 ATP        -0.1305
     26 C6         -2.0291    5.0943    0.5330 C.ar      1 ATP         0.7186
     27 N6         -2.7093    5.8371   -0.2800 N.2       1 ATP        -0.8115
     28 N1         -2.1051    5.1136    1.9204 N.pl3     1 ATP        -0.8400
     29 C2         -1.3354    4.2774    2.7129 C.ar      1 ATP         0.6671
     30 N3         -0.4707    3.3945    2.2944 N.2       1 ATP        -0.5806
     31 C4         -0.3734    3.3525    0.9220 C.ar      1 ATP         0.2748
     32 HOG3       -0.8269   -0.9296   -5.4490 H         1 ATP         0.4327
     33 HOB2        4.3730   -1.7718   -6.0536 H         1 ATP         0.4701
     34 H5'1        1.3514    0.2330   -2.1577 H         1 ATP         0.0401
     35 H5'2        2.1280   -1.3678   -2.0460 H         1 ATP         0.0401
     36 H4'         3.8044   -0.1397   -0.4040 H         1 ATP         0.1136
     37 H3'         1.6764   -1.7639    0.2728 H         1 ATP         0.0693
     38 HO3'        2.2232   -1.2979    2.3953 H         1 ATP         0.4124
     39 H2'        -0.0011    0.0027    0.0003 H         1 ATP         0.0854
     40 HO2'       -0.6141    0.5574    2.1082 H         1 ATP         0.4367
     41 H1'         1.7826    1.9024    1.6451 H         1 ATP         0.1343
     42 H8          0.7125    2.3429   -1.9292 H         1 ATP         0.3302
     43 HN62       -3.3217    6.4517    0.2629 H         1 ATP         0.4160
     44 H2         -1.5188    4.4223    3.7890 H         1 ATP         0.0756
     45 H45        -2.7470    5.7627    2.3665 H         1 ATP         0.4587
     46 H46        -1.0305    4.1680   -2.1054 H         1 ATP         0.5254
@<TRIPOS>BOND
     1    1    2 2
     2    1    3 1
     3    1    4 1
     4    1    8 1
     5    4   32 1
     6    5    6 2
     7    5    7 1
     8    5    8 1
     9    5   12 1
    10    7   33 1
    11    9   10 2
    12    9   11 1
    13    9   12 1
    14    9   13 1
    15   13   14 1
    16   14   15 1
    17   14   34 1
    18   14   35 1
    19   15   16 1
    20   15   17 1
    21   15   36 1
    22   16   21 1
    23   17   18 1
    24   17   19 1
    25   17   37 1
    26   18   38 1
    27   19   20 1
    28   19   21 1
    29   19   39 1
    30   20   40 1
    31   21   22 1
    32   21   41 1
    33   22   23 ar
    34   22   31 ar
    35   23   24 ar
    36   23   42 1
    37   24   25 ar
    38   24   46 1
    39   25   26 ar
    40   25   31 ar
    41   26   27 2
    42   26   28 ar
    43   27   43 1
    44   28   29 ar
    45   28   45 1
    46   29   30 ar
    47   29   44 1
    48   30   31 ar
@<TRIPOS>SUBSTRUCTURE
     1 ATP         1 GROUP 0 A     ****
@<TRIPOS>MOLECULE
[[[3,4-dihydroxy-5-(6-imino-7,8-dihydro-1~{H}-purin-8-ylium-9-yl)tetrahydrofuran-2-yl]methoxy-oxido-phosphoryl]oxy-hydroxy-phosphoryl] hydrogen phosphate
   46    48     1     0     0
SMALL
USER_CHARGES

@<TRIPOS>ATOM
      1 PG         -0.0315    0.4864   -5.9847 P.3       1 ATP         1.5595
      2 O1G         1.0074    1.5827   -5.9041 O.co2     1 ATP        -0.8438
      3 O2G        -1.0367    0.2854   -4.8726 O.co2     1 ATP        -0.8438
      4 O3G        -0.8416    0.6426   -7.3938 O.3       1 ATP        -0.7800
      5 PB          1.7308   -1.7980   -5.3733 P.3       1 ATP         1.9223
      6 O1B         2.2253   -3.0693   -5.9973 O.2       1 ATP        -0.8953
      7 O2B         2.8838   -0.7395   -4.9685 O.3       1 ATP        -0.8165
      8 O3B         0.7179   -0.9304   -6.2867 O.3       1 ATP        -0.8247
      9 PA          1.2680   -2.6342   -2.5827 P.3       1 ATP         1.6157
     10 O1A         1.7716   -4.0414   -2.8198 O.co2     1 ATP        -0.8629
     11 O2A         0.1425   -2.3698   -1.6064 O.co2     1 ATP        -0.8629
     12 O3A         0.8669   -1.9697   -4.0192 O.3       1 ATP        -0.8191
     13 O5'         2.5245   -1.6648   -2.1878 O.3       1 ATP        -0.5644
     14 C5'         2.2816   -0.2918   -1.9206 C.3       1 ATP         0.2062
     15 C4'         2.7248    0.0226   -0.4980 C.3       1 ATP         0.0971
     16 O4'         2.4697    1.4219   -0.2462 O.3       1 ATP        -0.3662
     17 C3'         1.9404   -0.7419    0.5596 C.3       1 ATP         0.0734
     18 O3'         2.7418   -0.8086    1.7389 O.3       1 ATP        -0.5671
     19 C2'         0.7477    0.1630    0.7858 C.3       1 ATP         0.0745
     20 O2'         0.1373   -0.0577    2.0407 O.3       1 ATP        -0.5794
     21 C1'         1.3733    1.5427    0.6747 C.3       1 ATP         0.3824
     22 N9          0.4520    2.5240    0.1767 N.pl3     1 ATP        -0.4324
     23 C8          0.2216    2.8192   -1.0985 C.ar      1 ATP         0.2662
     24 N7         -0.6906    3.7763   -1.2384 N.pl3     1 ATP        -0.4772
     25 C5         -1.0575    4.1037    0.0366 C.ar      1 ATP        -0.1305
     26 C6         -2.0291    5.0943    0.5330 C.ar      1 ATP         0.7186
     27 N6         -2.7093    5.8371   -0.2800 N.2       1 ATP        -0.8115
     28 N1         -2.1051    5.1136    1.9204 N.pl3     1 ATP        -0.8400
     29 C2         -1.3354    4.2774    2.7129 C.ar      1 ATP         0.6671
     30 N3         -0.4707    3.3945    2.2944 N.2       1 ATP        -0.5806
     31 C4         -0.3734    3.3525    0.9220 C.ar      1 ATP         0.2748
     32 HOG3       -1.5549    0.0002   -7.5958 H         1 ATP         0.4327
     33 HOB2        3.5712   -1.0103   -4.3232 H         1 ATP         0.4701
     34 H5'1        2.8432    0.3119   -2.6398 H         1 ATP         0.0401
     35 H5'2        1.2128   -0.0927   -2.0428 H         1 ATP         0.0401
     36 H4'         3.8044   -0.1397   -0.4040 H         1 ATP         0.1136
     37 H3'         1.6764   -1.7639    0.2728 H         1 ATP         0.0693
     38 HO3'        2.2232   -1.2979    2.3953 H         1 ATP         0.4124
     39 H2'        -0.0011    0.0027    0.0003 H         1 ATP         0.0854
     40 HO2'       -0.6141    0.5574    2.1082 H         1 ATP         0.4367
     41 H1'         1.7826    1.9024    1.6451 H         1 ATP         0.1343
     42 H8          0.7125    2.3429   -1.9292 H         1 ATP         0.3302
     43 HN62       -3.3217    6.4517    0.2629 H         1 ATP         0.4160
     44 H2         -1.5188    4.4223    3.7890 H         1 ATP         0.0756
     45 H45        -2.7470    5.7627    2.3665 H         1 ATP         0.4587
     46 H46        -1.0305    4.1680   -2.1054 H         1 ATP         0.5254
@<TRIPOS>BOND
     1    1    2 2
     2    1    3 1
     3    1    4 1
     4    1    8 1
     5    4   32 1
     6    5    6 2
     7    5    7 1
     8    5    8 1
     9    5   12 1
    10    7   33 1
    11    9   10 2
    12    9   11 1
    13    9   12 1
    14    9   13 1
    15   13   14 1
    16   14   15 1
    17   14   34 1
    18   14   35 1
    19   15   16 1
    20   15   17 1
    21   15   36 1
    22   16   21 1
    23   17   18 1
    24   17   19 1
    25   17   37 1
    26   18   38 1
    27   19   20 1
    28   19   21 1
    29   19   39 1
    30   20   40 1
    31   21   22 1
    32   21   41 1
    33   22   23 ar
    34   22   31 ar
    35   23   24 ar
    36   23   42 1
    37   24   25 ar
    38   24   46 1
    39   25   26 ar
    40   25   31 ar
    41   26   27 2
    42   26   28 ar
    43   27   43 1
    44   28   29 ar
    45   28   45 1
    46   29   30 ar
    47   29   44 1
    48   30   31 ar
@<TRIPOS>SUBSTRUCTURE
     1 ATP         1 GROUP 0 A     ****
@<TRIPOS>MOLECULE
[[[3,4-dihydroxy-5-(6-imino-7,8-dihydro-1~{H}-purin-8-ylium-9-yl)tetrahydrofuran-2-yl]methoxy-oxido-phosphoryl]oxy-hydroxy-phosphoryl] hydrogen phosphate
   46    48     1     0     0
SMALL
USER_CHARGES

@<TRIPOS>ATOM
      1 PG          3.3838   -5.6506   -5.6415 P.3       1 ATP         1.5595
      2 O1G         3.4592   -6.6371   -4.4974 O.co2     1 ATP        -0.8438
      3 O2G         4.3273   -5.7530   -6.8191 O.co2     1 ATP        -0.8438
      4 O3G         1.8516   -5.6270   -6.2054 O.3       1 ATP        -0.7800
      5 PB          3.2610   -2.7067   -5.7687 P.3       1 ATP         1.9223
      6 O1B         4.2382   -2.4179   -6.8697 O.2       1 ATP        -0.8953
      7 O2B         1.7069   -2.7044   -6.2138 O.3       1 ATP        -0.8165
      8 O3B         3.4482   -4.1366   -5.0385 O.3       1 ATP        -0.8247
      9 PA          3.0673   -0.0858   -4.4292 P.3       1 ATP         1.6157
     10 O1A         1.6266    0.2116   -4.7838 O.co2     1 ATP        -0.8629
     11 O2A         4.2011    0.5980   -5.1618 O.co2     1 ATP        -0.8629
     12 O3A         3.3063   -1.6991   -4.5069 O.3       1 ATP        -0.8191
     13 O5'         3.2903    0.1346   -2.8241 O.3       1 ATP        -0.5644
     14 C5'         2.2816   -0.2918   -1.9206 C.3       1 ATP         0.2062
     15 C4'         2.7248    0.0226   -0.4980 C.3       1 ATP         0.0971
     16 O4'         2.4697    1.4219   -0.2462 O.3       1 ATP        -0.3662
     17 C3'         1.9404   -0.7419    0.5596 C.3       1 ATP         0.0734
     18 O3'         2.7418   -0.8086    1.7389 O.3       1 ATP        -0.5671
     19 C2'         0.7477    0.1630    0.7858 C.3       1 ATP         0.0745
     20 O2'         0.1373   -0.0577    2.0407 O.3       1 ATP        -0.5794
     21 C1'         1.3733    1.5427    0.6747 C.3       1 ATP         0.3824
     22 N9          0.4520    2.5240    0.1767 N.pl3     1 ATP        -0.4324
     23 C8          0.5691    3.2215   -0.9485 C.ar      1 ATP         0.2662
     24 N7         -0.4499    4.0551   -1.1342 N.pl3     1 ATP        -0.4772
     25 C5         -1.2618    3.8674   -0.0512 C.ar      1 ATP        -0.1305
     26 C6         -2.5420    4.5007    0.3120 C.ar      1 ATP         0.7186
     27 N6         -3.0874    5.3993   -0.4432 N.2       1 ATP        -0.8115
     28 N1         -3.0494    4.0205    1.5133 N.pl3     1 ATP        -0.8400
     29 C2         -2.3933    3.0527    2.2567 C.ar      1 ATP         0.6671
     30 N3         -1.2611    2.4796    1.9536 N.2       1 ATP        -0.5806
     31 C4         -0.7334    2.9358    0.7669 C.ar      1 ATP         0.2748
     32 HOG3        1.6393   -5.0310   -6.9550 H         1 ATP         0.4327
     33 HOB2        1.3236   -1.8858   -6.5949 H         1 ATP         0.4701
     34 H5'1        1.3514    0.2330   -2.1577 H         1 ATP         0.0401
     35 H5'2        2.1280   -1.3678   -2.0460 H         1 ATP         0.0401
     36 H4'         3.8044   -0.1397   -0.4040 H         1 ATP         0.1136
     37 H3'         1.6764   -1.7639    0.2728 H         1 ATP         0.0693
     38 HO3'        3.5554   -1.2733    1.4914 H         1 ATP         0.4124
     39 H2'        -0.0011    0.0027    0.0003 H         1 ATP         0.0854
     40 HO2'       -0.1563   -0.9855    2.0596 H         1 ATP         0.4367
     41 H1'         1.7826    1.9024    1.6451 H         1 ATP         0.1343
     42 H8          1.3912    3.1285   -1.6365 H         1 ATP         0.3302
     43 HN62       -3.9637    5.7084   -0.0142 H         1 ATP         0.4160
     44 H2         -2.9317    2.7866    3.1796 H         1 ATP         0.0756
     45 H45        -3.9307    4.3923    1.8559 H         1 ATP         0.4587
     46 H46        -0.5835    4.6857   -1.9122 H         1 ATP         0.5254
@<TRIPOS>BOND
     1    1    2 2
     2    1    3 1
     3    1    4 1
     4    1    8 1
     5    4   32 1
     6    5    6 2
     7    5    7 1
     8    5    8 1
     9    5   12 1
    10    7   33 1
    11    9   10 2
    12    9   11 1
    13    9   12 1
    14    9   13 1
    15   13   14 1
    16   14   15 1
    17   14   34 1
    18   14   35 1
    19   15   16 1
    20   15   17 1
    21   15   36 1
    22   16   21 1
    23   17   18 1
    24   17   19 1
    25   17   37 1
    26   18   38 1
    27   19   20 1
    28   19   21 1
    29   19   39 1
    30   20   40 1
    31   21   22 1
    32   21   41 1
    33   22   23 ar
    34   22   31 ar
    35   23   24 ar
    36   23   42 1
    37   24   25 ar
    38   24   46 1
    39   25   26 ar
    40   25   31 ar
    41   26   27 2
    42   26   28 ar
    43   27   43 1
    44   28   29 ar
    45   28   45 1
    46   29   30 ar
    47   29   44 1
    48   30   31 ar
@<TRIPOS>SUBSTRUCTURE
     1 ATP         1 GROUP 0 A     ****
@<TRIPOS>MOLECULE
[[[3,4-dihydroxy-5-(6-imino-7,8-dihydro-1~{H}-purin-8-ylium-9-yl)tetrahydrofuran-2-yl]methoxy-oxido-phosphoryl]oxy-hydroxy-phosphoryl] hydrogen phosphate
   46    48     1     0     0
SMALL
USER_CHARGES

@<TRIPOS>ATOM
      1 PG          6.4758   -0.9155   -2.1291 P.3       1 ATP         1.5595
      2 O1G         6.1456   -0.6684   -0.6739 O.co2     1 ATP        -0.8438
      3 O2G         7.4392   -0.0159   -2.8708 O.co2     1 ATP        -0.8438
      4 O3G         6.9797   -2.4602   -2.2912 O.3       1 ATP        -0.7800
      5 PB          4.8246   -1.4165   -4.5208 P.3       1 ATP         1.9223
      6 O1B         5.4914   -0.5301   -5.5308 O.2       1 ATP        -0.8953
      7 O2B         5.2471   -2.9754   -4.5922 O.3       1 ATP        -0.8165
      8 O3B         5.0858   -1.0192   -2.9759 O.3       1 ATP        -0.8247
      9 PA          2.1371   -2.2715   -3.6563 P.3       1 ATP         1.6157
     10 O1A         2.4857   -3.7434   -3.7019 O.co2     1 ATP        -0.8629
     11 O2A         0.7457   -1.7949   -4.0121 O.co2     1 ATP        -0.8629
     12 O3A         3.2103   -1.4478   -4.5705 O.3       1 ATP        -0.8191
     13 O5'         2.5245   -1.6648   -2.1878 O.3       1 ATP        -0.5644
     14 C5'         2.2816   -0.2918   -1.9206 C.3       1 ATP         0.2062
     15 C4'         2.7248    0.0226   -0.4980 C.3       1 ATP         0.0971
     16 O4'         2.4697    1.4219   -0.2462 O.3       1 ATP        -0.3662
     17 C3'         1.9404   -0.7419    0.5596 C.3       1 ATP         0.0734
     18 O3'         2.7418   -0.8086    1.7389 O.3       1 ATP        -0.5671
     19 C2'         0.7477    0.1630    0.7858 C.3       1 ATP         0.0745
     20 O2'         0.1373   -0.0577    2.0407 O.3       1 ATP        -0.5794
     21 C1'         1.3733    1.5427    0.6747 C.3       1 ATP         0.3824
     22 N9          0.4520    2.5240    0.1767 N.pl3     1 ATP        -0.4324
     23 C8          0.2216    2.8192   -1.0985 C.ar      1 ATP         0.2662
     24 N7         -0.6906    3.7763   -1.2384 N.pl3     1 ATP        -0.4772
     25 C5         -1.0575    4.1037    0.0366 C.ar      1 ATP        -0.1305
     26 C6         -2.0291    5.0943    0.5330 C.ar      1 ATP         0.7186
     27 N6         -2.7093    5.8371   -0.2800 N.2       1 ATP        -0.8115
     28 N1         -2.1051    5.1136    1.9204 N.pl3     1 ATP        -0.8400
     29 C2         -1.3354    4.2774    2.7129 C.ar      1 ATP         0.6671
     30 N3         -0.4707    3.3945    2.2944 N.2       1 ATP        -0.5806
     31 C4         -0.3734    3.3525    0.9220 C.ar      1 ATP         0.2748
     32 HOG3        7.2333   -2.7772   -3.1841 H         1 ATP         0.4327
     33 HOB2        5.0799   -3.4749   -5.4197 H         1 ATP         0.4701
     34 H5'1        2.8432    0.3119   -2.6398 H         1 ATP         0.0401
     35 H5'2        1.2128   -0.0927   -2.0428 H         1 ATP         0.0401
     36 H4'         3.8044   -0.1397   -0.4040 H         1 ATP         0.1136
     37 H3'         1.6764   -1.7639    0.2728 H         1 ATP         0.0693
     38 HO3'        2.2232   -1.2979    2.3953 H         1 ATP         0.4124
     39 H2'        -0.0011    0.0027    0.0003 H         1 ATP         0.0854
     40 HO2'       -0.6141    0.5574    2.1082 H         1 ATP         0.4367
     41 H1'         1.7826    1.9024    1.6451 H         1 ATP         0.1343
     42 H8          0.7125    2.3429   -1.9292 H         1 ATP         0.3302
     43 HN62       -3.3217    6.4517    0.2629 H         1 ATP         0.4160
     44 H2         -1.5188    4.4223    3.7890 H         1 ATP         0.0756
     45 H45        -2.7470    5.7627    2.3665 H         1 ATP         0.4587
     46 H46        -1.0305    4.1680   -2.1054 H         1 ATP         0.5254
@<TRIPOS>BOND
     1    1    2 2
     2    1    3 1
     3    1    4 1
     4    1    8 1
     5    4   32 1
     6    5    6 2
     7    5    7 1
     8    5    8 1
     9    5   12 1
    10    7   33 1
    11    9   10 2
    12    9   11 1
    13    9   12 1
    14    9   13 1
    15   13   14 1
    16   14   15 1
    17   14   34 1
    18   14   35 1
    19   15   16 1
    20   15   17 1
    21   15   36 1
    22   16   21 1
    23   17   18 1
    24   17   19 1
    25   17   37 1
    26   18   38 1
    27   19   20 1
    28   19   21 1
    29   19   39 1
    30   20   40 1
    31   21   22 1
    32   21   41 1
    33   22   23 ar
    34   22   31 ar
    35   23   24 ar
    36   23   42 1
    37   24   25 ar
    38   24   46 1
    39   25   26 ar
    40   25   31 ar
    41   26   27 2
    42   26   28 ar
    43   27   43 1
    44   28   29 ar
    45   28   45 1
    46   29   30 ar
    47   29   44 1
    48   30   31 ar
@<TRIPOS>SUBSTRUCTURE
     1 ATP         1 GROUP 0 A     ****
@<TRIPOS>MOLECULE
[[[3,4-dihydroxy-5-(6-imino-7,8-dihydro-1~{H}-purin-8-ylium-9-yl)tetrahydrofuran-2-yl]methoxy-oxido-phosphoryl]oxy-hydroxy-phosphoryl] hydrogen phosphate
   46    48     1     0     0
SMALL
USER_CHARGES

@<TRIPOS>ATOM
      1 PG         -2.4392   -7.3395    7.4663 P.3       1 ATP         1.5595
      2 O1G        -1.4860   -7.0589    8.6066 O.co2     1 ATP        -0.8438
      3 O2G        -3.0162   -8.7219    7.2582 O.co2     1 ATP        -0.8438
      4 O3G        -3.6708   -6.2703    7.5453 O.3       1 ATP        -0.7800
      5 PB         -0.4636   -7.3769    5.2769 P.3       1 ATP         1.9223
      6 O1B         0.8257   -7.3246    6.0419 O.2       1 ATP        -0.8953
      7 O2B        -0.9089   -8.8509    4.7842 O.3       1 ATP        -0.8165
      8 O3B        -1.7602   -6.8313    6.0732 O.3       1 ATP        -0.8247
      9 PA         -1.7207   -6.2768    2.8457 P.3       1 ATP         1.6157
     10 O1A        -2.8743   -5.5689    3.5224 O.co2     1 ATP        -0.8629
     11 O2A        -1.9358   -7.5875    2.1206 O.co2     1 ATP        -0.8629
     12 O3A        -0.5195   -6.4834    3.9322 O.3       1 ATP        -0.8191
     13 O5'        -0.9724   -5.2440    1.8220 O.3       1 ATP        -0.5644
     14 C5'        -0.7840   -3.8935    2.2172 C.3       1 ATP         0.2062
     15 C4'        -0.0724   -3.1466    1.1027 C.3       1 ATP         0.0971
     16 O4'        -0.8674   -3.1929   -0.0945 O.3       1 ATP        -0.3662
     17 C3'         0.1338   -1.6715    1.4027 C.3       1 ATP         0.0734
     18 O3'         1.2893   -1.4445    2.1808 O.3       1 ATP        -0.5671
     19 C2'         0.2158   -1.0724    0.0128 C.3       1 ATP         0.0745
     20 O2'         1.5141   -1.2448   -0.5513 O.3       1 ATP        -0.5794
     21 C1'        -0.7897   -1.9176   -0.7583 C.3       1 ATP         0.3824
     22 N9         -2.1040   -1.3333   -0.7704 N.pl3     1 ATP        -0.4324
     23 C8         -3.0590   -1.5123    0.1363 C.ar      1 ATP         0.2662
     24 N7         -4.1655   -0.8354   -0.1554 N.pl3     1 ATP        -0.4772
     25 C5         -3.8852   -0.1874   -1.3253 C.ar      1 ATP        -0.1305
     26 C6         -4.7113    0.7160   -2.1458 C.ar      1 ATP         0.7186
     27 N6         -5.9213    1.0209   -1.8021 N.2       1 ATP        -0.8115
     28 N1         -4.0411    1.1673   -3.2764 N.pl3     1 ATP        -0.8400
     29 C2         -2.7403    0.7865   -3.5638 C.ar      1 ATP         0.6671
     30 N3         -1.9921   -0.0108   -2.8519 N.2       1 ATP        -0.5806
     31 C4         -2.6302   -0.4747   -1.7239 C.ar      1 ATP         0.2748
     32 HOG3       -4.3783   -6.3225    6.8680 H         1 ATP         0.4327
     33 HOB2       -1.0605   -9.5499    5.4555 H         1 ATP         0.4701
     34 H5'1       -1.7618   -3.4448    2.4164 H         1 ATP         0.0401
     35 H5'2       -0.1874   -3.8744    3.1341 H         1 ATP         0.0401
     36 H4'         0.8874   -3.6466    0.8805 H         1 ATP         0.1136
     37 H3'        -0.7376   -1.2333    1.9867 H         1 ATP         0.0693
     38 HO3'        1.1626   -1.9325    3.0084 H         1 ATP         0.4124
     39 H2'        -0.0384   -0.0310    0.0096 H         1 ATP         0.0854
     40 HO2'        2.1463   -0.7958    0.0370 H         1 ATP         0.4367
     41 H1'        -0.4769   -2.1002   -1.8093 H         1 ATP         0.1343
     42 H8         -2.9569   -2.1323    1.0098 H         1 ATP         0.3302
     43 HN62       -6.3169    1.6552   -2.5012 H         1 ATP         0.4160
     44 H2         -2.3612    1.2343   -4.4957 H         1 ATP         0.0756
     45 H45        -4.5223    1.7976   -3.9117 H         1 ATP         0.4587
     46 H46        -5.0218   -0.8132    0.3804 H         1 ATP         0.5254
@<TRIPOS>BOND
     1    1    2 2
     2    1    3 1
     3    1    4 1
     4    1    8 1
     5    4   32 1
     6    5    6 2
     7    5    7 1
     8    5    8 1
     9    5   12 1
    10    7   33 1
    11    9   10 2
    12    9   11 1
    13    9   12 1
    14    9   13 1
    15   13   14 1
    16   14   15 1
    17   14   34 1
    18   14   35 1
    19   15   16 1
    20   15   17 1
    21   15   36 1
    22   16   21 1
    23   17   18 1
    24   17   19 1
    25   17   37 1
    26   18   38 1
    27   19   20 1
    28   19   21 1
    29   19   39 1
    30   20   40 1
    31   21   22 1
    32   21   41 1
    33   22   23 ar
    34   22   31 ar
    35   23   24 ar
    36   23   42 1
    37   24   25 ar
    38   24   46 1
    39   25   26 ar
    40   25   31 ar
    41   26   27 2
    42   26   28 ar
    43   27   43 1
    44   28   29 ar
    45   28   45 1
    46   29   30 ar
    47   29   44 1
    48   30   31 ar
@<TRIPOS>SUBSTRUCTURE
     1 ATP         1 GROUP 0 A     ****
@<TRIPOS>MOLECULE
[[[3,4-dihydroxy-5-(6-imino-7,8-dihydro-1~{H}-purin-8-ylium-9-yl)tetrahydrofuran-2-yl]methoxy-oxido-phosphoryl]oxy-hydroxy-phosphoryl] hydrogen phosphate
   46    48     1     0     0
SMALL
USER_CHARGES

@<TRIPOS>ATOM
      1 PG          3.0102   -5.1286   -2.1443 P.3       1 ATP         1.5595
      2 O1G         1.8396   -4.7065   -3.0042 O.co2     1 ATP        -0.8438
      3 O2G         2.9443   -5.0247   -0.6369 O.co2     1 ATP        -0.8438
      4 O3G         3.4196   -6.6587   -2.5411 O.3       1 ATP        -0.7800
      5 PB          4.7521   -2.8027   -2.6481 P.3       1 ATP         1.9223
      6 O1B         4.8120   -2.1783   -1.2854 O.2       1 ATP        -0.8953
      7 O2B         6.1313   -2.7454   -3.4895 O.3       1 ATP        -0.8165
      8 O3B         4.3538   -4.3691   -2.6716 O.3       1 ATP        -0.8247
      9 PA          3.4842   -0.6654   -4.2373 P.3       1 ATP         1.6157
     10 O1A         2.2032   -0.5902   -5.0393 O.co2     1 ATP        -0.8629
     11 O2A         4.8029   -0.2387   -4.8445 O.co2     1 ATP        -0.8629
     12 O3A         3.6540   -2.1823   -3.6575 O.3       1 ATP        -0.8191
     13 O5'         3.2903    0.1346   -2.8241 O.3       1 ATP        -0.5644
     14 C5'         2.2816   -0.2918   -1.9206 C.3       1 ATP         0.2062
     15 C4'         2.7248    0.0226   -0.4980 C.3       1 ATP         0.0971
     16 O4'         2.4697    1.4219   -0.2462 O.3       1 ATP        -0.3662
     17 C3'         1.9404   -0.7419    0.5596 C.3       1 ATP         0.0734
     18 O3'         2.7418   -0.8086    1.7389 O.3       1 ATP        -0.5671
     19 C2'         0.7477    0.1630    0.7858 C.3       1 ATP         0.0745
     20 O2'         0.1373   -0.0577    2.0407 O.3       1 ATP        -0.5794
     21 C1'         1.3733    1.5427    0.6747 C.3       1 ATP         0.3824
     22 N9          0.4520    2.5240    0.1767 N.pl3     1 ATP        -0.4324
     23 C8          0.2216    2.8192   -1.0985 C.ar      1 ATP         0.2662
     24 N7         -0.6906    3.7763   -1.2384 N.pl3     1 ATP        -0.4772
     25 C5         -1.0575    4.1037    0.0366 C.ar      1 ATP        -0.1305
     26 C6         -2.0291    5.0943    0.5330 C.ar      1 ATP         0.7186
     27 N6         -2.7093    5.8371   -0.2800 N.2       1 ATP        -0.8115
     28 N1         -2.1051    5.1136    1.9204 N.pl3     1 ATP        -0.8400
     29 C2         -1.3354    4.2774    2.7129 C.ar      1 ATP         0.6671
     30 N3         -0.4707    3.3945    2.2944 N.2       1 ATP        -0.5806
     31 C4         -0.3734    3.3525    0.9220 C.ar      1 ATP         0.2748
     32 HOG3        4.1683   -7.0794   -2.0671 H         1 ATP         0.4327
     33 HOB2        6.9308   -3.1775   -3.1201 H         1 ATP         0.4701
     34 H5'1        1.3514    0.2330   -2.1577 H         1 ATP         0.0401
     35 H5'2        2.1280   -1.3678   -2.0460 H         1 ATP         0.0401
     36 H4'         3.8044   -0.1397   -0.4040 H         1 ATP         0.1136
     37 H3'         1.6764   -1.7639    0.2728 H         1 ATP         0.0693
     38 HO3'        2.2232   -1.2979    2.3953 H         1 ATP         0.4124
     39 H2'        -0.0011    0.0027    0.0003 H         1 ATP         0.0854
     40 HO2'       -0.1563   -0.9855    2.0596 H         1 ATP         0.4367
     41 H1'         1.7826    1.9024    1.6451 H         1 ATP         0.1343
     42 H8          0.7125    2.3429   -1.9292 H         1 ATP         0.3302
     43 HN62       -3.3217    6.4517    0.2629 H         1 ATP         0.4160
     44 H2         -1.5188    4.4223    3.7890 H         1 ATP         0.0756
     45 H45        -2.7470    5.7627    2.3665 H         1 ATP         0.4587
     46 H46        -1.0305    4.1680   -2.1054 H         1 ATP         0.5254
@<TRIPOS>BOND
     1    1    2 2
     2    1    3 1
     3    1    4 1
     4    1    8 1
     5    4   32 1
     6    5    6 2
     7    5    7 1
     8    5    8 1
     9    5   12 1
    10    7   33 1
    11    9   10 2
    12    9   11 1
    13    9   12 1
    14    9   13 1
    15   13   14 1
    16   14   15 1
    17   14   34 1
    18   14   35 1
    19   15   16 1
    20   15   17 1
    21   15   36 1
    22   16   21 1
    23   17   18 1
    24   17   19 1
    25   17   37 1
    26   18   38 1
    27   19   20 1
    28   19   21 1
    29   19   39 1
    30   20   40 1
    31   21   22 1
    32   21   41 1
    33   22   23 ar
    34   22   31 ar
    35   23   24 ar
    36   23   42 1
    37   24   25 ar
    38   24   46 1
    39   25   26 ar
    40   25   31 ar
    41   26   27 2
    42   26   28 ar
    43   27   43 1
    44   28   29 ar
    45   28   45 1
    46   29   30 ar
    47   29   44 1
    48   30   31 ar
@<TRIPOS>SUBSTRUCTURE
     1 ATP         1 GROUP 0 A     ****
@<TRIPOS>MOLECULE
[[[3,4-dihydroxy-5-(6-imino-7,8-dihydro-1~{H}-purin-8-ylium-9-yl)tetrahydrofuran-2-yl]methoxy-oxido-phosphoryl]oxy-hydroxy-phosphoryl] hydrogen phosphate
   46    48     1     0     0
SMALL
USER_CHARGES

@<TRIPOS>ATOM
      1 PG         -0.6976   -1.2833   -7.0215 P.3       1 ATP         1.5595
      2 O1G        -0.3112   -0.9310   -8.4408 O.co2     1 ATP        -0.8438
      3 O2G        -1.6588   -0.4158   -6.2399 O.co2     1 ATP        -0.8438
      4 O3G        -1.2517   -2.8192   -7.0014 O.3       1 ATP        -0.7800
      5 PB          1.7982   -0.4434   -5.6937 P.3       1 ATP         1.9223
      6 O1B         2.5155    0.2411   -6.8195 O.2       1 ATP        -0.8953
      7 O2B         1.0250    0.5434   -4.6731 O.3       1 ATP        -0.8165
      8 O3B         0.6593   -1.4989   -6.1427 O.3       1 ATP        -0.8247
      9 PA          4.0008   -0.9665   -3.8026 P.3       1 ATP         1.6157
     10 O1A         5.0349   -0.2794   -4.6679 O.co2     1 ATP        -0.8629
     11 O2A         4.3698   -2.1727   -2.9668 O.co2     1 ATP        -0.8629
     12 O3A         2.7156   -1.3594   -4.7300 O.3       1 ATP        -0.8191
     13 O5'         3.2903    0.1346   -2.8241 O.3       1 ATP        -0.5644
     14 C5'         2.2816   -0.2918   -1.9206 C.3       1 ATP         0.2062
     15 C4'         2.7248    0.0226   -0.4980 C.3       1 ATP         0.0971
     16 O4'         2.4697    1.4219   -0.2462 O.3       1 ATP        -0.3662
     17 C3'         1.9404   -0.7419    0.5596 C.3       1 ATP         0.0734
     18 O3'         2.7418   -0.8086    1.7389 O.3       1 ATP        -0.5671
     19 C2'         0.7477    0.1630    0.7858 C.3       1 ATP         0.0745
     20 O2'         0.1373   -0.0577    2.0407 O.3       1 ATP        -0.5794
     21 C1'         1.3733    1.5427    0.6747 C.3       1 ATP         0.3824
     22 N9          0.4520    2.5240    0.1767 N.pl3     1 ATP        -0.4324
     23 C8          0.2216    2.8192   -1.0985 C.ar      1 ATP         0.2662
     24 N7         -0.6906    3.7763   -1.2384 N.pl3     1 ATP        -0.4772
     25 C5         -1.0575    4.1037    0.0366 C.ar      1 ATP        -0.1305
     26 C6         -2.0291    5.0943    0.5330 C.ar      1 ATP         0.7186
     27 N6         -2.7093    5.8371   -0.2800 N.2       1 ATP        -0.8115
     28 N1         -2.1051    5.1136    1.9204 N.pl3     1 ATP        -0.8400
     29 C2         -1.3354    4.2774    2.7129 C.ar      1 ATP         0.6671
     30 N3         -0.4707    3.3945    2.2944 N.2       1 ATP        -0.5806
     31 C4         -0.3734    3.3525    0.9220 C.ar      1 ATP         0.2748
     32 HOG3       -1.5446   -3.1984   -6.1455 H         1 ATP         0.4327
     33 HOB2        1.5411    1.2189   -4.1835 H         1 ATP         0.4701
     34 H5'1        1.3514    0.2330   -2.1577 H         1 ATP         0.0401
     35 H5'2        2.1280   -1.3678   -2.0460 H         1 ATP         0.0401
     36 H4'         3.8044   -0.1397   -0.4040 H         1 ATP         0.1136
     37 H3'         1.6764   -1.7639    0.2728 H         1 ATP         0.0693
     38 HO3'        3.5554   -1.2733    1.4914 H         1 ATP         0.4124
     39 H2'        -0.0011    0.0027    0.0003 H         1 ATP         0.0854
     40 HO2'       -0.1563   -0.9855    2.0596 H         1 ATP         0.4367
     41 H1'         1.7826    1.9024    1.6451 H         1 ATP         0.1343
     42 H8          0.7125    2.3429   -1.9292 H         1 ATP         0.3302
     43 HN62       -3.3217    6.4517    0.2629 H         1 ATP         0.4160
     44 H2         -1.5188    4.4223    3.7890 H         1 ATP         0.0756
     45 H45        -2.7470    5.7627    2.3665 H         1 ATP         0.4587
     46 H46        -1.0305    4.1680   -2.1054 H         1 ATP         0.5254
@<TRIPOS>BOND
     1    1    2 2
     2    1    3 1
     3    1    4 1
     4    1    8 1
     5    4   32 1
     6    5    6 2
     7    5    7 1
     8    5    8 1
     9    5   12 1
    10    7   33 1
    11    9   10 2
    12    9   11 1
    13    9   12 1
    14    9   13 1
    15   13   14 1
    16   14   15 1
    17   14   34 1
    18   14   35 1
    19   15   16 1
    20   15   17 1
    21   15   36 1
    22   16   21 1
    23   17   18 1
    24   17   19 1
    25   17   37 1
    26   18   38 1
    27   19   20 1
    28   19   21 1
    29   19   39 1
    30   20   40 1
    31   21   22 1
    32   21   41 1
    33   22   23 ar
    34   22   31 ar
    35   23   24 ar
    36   23   42 1
    37   24   25 ar
    38   24   46 1
    39   25   26 ar
    40   25   31 ar
    41   26   27 2
    42   26   28 ar
    43   27   43 1
    44   28   29 ar
    45   28   45 1
    46   29   30 ar
    47   29   44 1
    48   30   31 ar
@<TRIPOS>SUBSTRUCTURE
     1 ATP         1 GROUP 0 A     ****
@<TRIPOS>MOLECULE
[[[3,4-dihydroxy-5-(6-imino-7,8-dihydro-1~{H}-purin-8-ylium-9-yl)tetrahydrofuran-2-yl]methoxy-oxido-phosphoryl]oxy-hydroxy-phosphoryl] hydrogen phosphate
   46    48     1     0     0
SMALL
USER_CHARGES

@<TRIPOS>ATOM
      1 PG         -3.1982   -2.0484   -4.6325 P.3       1 ATP         1.5595
      2 O1G        -4.0218   -1.4876   -3.4945 O.co2     1 ATP        -0.8438
      3 O2G        -3.5267   -3.3940   -5.2398 O.co2     1 ATP        -0.8438
      4 O3G        -3.1444   -0.9388   -5.8292 O.3       1 ATP        -0.7800
      5 PB         -0.2981   -2.3614   -5.0675 P.3       1 ATP         1.9223
      6 O1B        -0.2319   -3.7517   -5.6269 O.2       1 ATP        -0.8953
      7 O2B        -0.2475   -1.1771   -6.1668 O.3       1 ATP        -0.8165
      8 O3B        -1.6242   -2.0276   -4.2056 O.3       1 ATP        -0.8247
      9 PA          1.2680   -2.6342   -2.5827 P.3       1 ATP         1.6157
     10 O1A         1.7716   -4.0414   -2.8198 O.co2     1 ATP        -0.8629
     11 O2A         0.1425   -2.3698   -1.6064 O.co2     1 ATP        -0.8629
     12 O3A         0.8669   -1.9697   -4.0192 O.3       1 ATP        -0.8191
     13 O5'         2.5245   -1.6648   -2.1878 O.3       1 ATP        -0.5644
     14 C5'         2.2816   -0.2918   -1.9206 C.3       1 ATP         0.2062
     15 C4'         2.7248    0.0226   -0.4980 C.3       1 ATP         0.0971
     16 O4'         2.4697    1.4219   -0.2462 O.3       1 ATP        -0.3662
     17 C3'         1.9404   -0.7419    0.5596 C.3       1 ATP         0.0734
     18 O3'         2.7418   -0.8086    1.7389 O.3       1 ATP        -0.5671
     19 C2'         0.7477    0.1630    0.7858 C.3       1 ATP         0.0745
     20 O2'         0.1373   -0.0577    2.0407 O.3       1 ATP        -0.5794
     21 C1'         1.3733    1.5427    0.6747 C.3       1 ATP         0.3824
     22 N9          0.4520    2.5240    0.1767 N.pl3     1 ATP        -0.4324
     23 C8          0.2216    2.8192   -1.0985 C.ar      1 ATP         0.2662
     24 N7         -0.6906    3.7763   -1.2384 N.pl3     1 ATP        -0.4772
     25 C5         -1.0575    4.1037    0.0366 C.ar      1 ATP        -0.1305
     26 C6         -2.0291    5.0943    0.5330 C.ar      1 ATP         0.7186
     27 N6         -2.7093    5.8371   -0.2800 N.2       1 ATP        -0.8115
     28 N1         -2.1051    5.1136    1.9204 N.pl3     1 ATP        -0.8400
     29 C2         -1.3354    4.2774    2.7129 C.ar      1 ATP         0.6671
     30 N3         -0.4707    3.3945    2.2944 N.2       1 ATP        -0.5806
     31 C4         -0.3734    3.3525    0.9220 C.ar      1 ATP         0.2748
     32 HOG3       -2.6431   -1.1552   -6.6441 H         1 ATP         0.4327
     33 HOB2        0.5361   -1.1066   -6.7526 H         1 ATP         0.4701
     34 H5'1        2.8432    0.3119   -2.6398 H         1 ATP         0.0401
     35 H5'2        1.2128   -0.0927   -2.0428 H         1 ATP         0.0401
     36 H4'         3.8044   -0.1397   -0.4040 H         1 ATP         0.1136
     37 H3'         1.6764   -1.7639    0.2728 H         1 ATP         0.0693
     38 HO3'        3.5554   -1.2733    1.4914 H         1 ATP         0.4124
     39 H2'        -0.0011    0.0027    0.0003 H         1 ATP         0.0854
     40 HO2'       -0.6141    0.5574    2.1082 H         1 ATP         0.4367
     41 H1'         1.7826    1.9024    1.6451 H         1 ATP         0.1343
     42 H8          0.7125    2.3429   -1.9292 H         1 ATP         0.3302
     43 HN62       -3.3217    6.4517    0.2629 H         1 ATP         0.4160
     44 H2         -1.5188    4.4223    3.7890 H         1 ATP         0.0756
     45 H45        -2.7470    5.7627    2.3665 H         1 ATP         0.4587
     46 H46        -1.0305    4.1680   -2.1054 H         1 ATP         0.5254
@<TRIPOS>BOND
     1    1    2 2
     2    1    3 1
     3    1    4 1
     4    1    8 1
     5    4   32 1
     6    5    6 2
     7    5    7 1
     8    5    8 1
     9    5   12 1
    10    7   33 1
    11    9   10 2
    12    9   11 1
    13    9   12 1
    14    9   13 1
    15   13   14 1
    16   14   15 1
    17   14   34 1
    18   14   35 1
    19   15   16 1
    20   15   17 1
    21   15   36 1
    22   16   21 1
    23   17   18 1
    24   17   19 1
    25   17   37 1
    26   18   38 1
    27   19   20 1
    28   19   21 1
    29   19   39 1
    30   20   40 1
    31   21   22 1
    32   21   41 1
    33   22   23 ar
    34   22   31 ar
    35   23   24 ar
    36   23   42 1
    37   24   25 ar
    38   24   46 1
    39   25   26 ar
    40   25   31 ar
    41   26   27 2
    42   26   28 ar
    43   27   43 1
    44   28   29 ar
    45   28   45 1
    46   29   30 ar
    47   29   44 1
    48   30   31 ar
@<TRIPOS>SUBSTRUCTURE
     1 ATP         1 GROUP 0 A     ****
@<TRIPOS>MOLECULE
[[[3,4-dihydroxy-5-(6-imino-7,8-dihydro-1~{H}-purin-8-ylium-9-yl)tetrahydrofuran-2-yl]methoxy-oxido-phosphoryl]oxy-hydroxy-phosphoryl] hydrogen phosphate
   46    48     1     0     0
SMALL
USER_CHARGES

@<TRIPOS>ATOM
      1 PG          8.4363   -2.6696   -1.4284 P.3       1 ATP         1.5595
      2 O1G         8.4761   -2.7215    0.0827 O.co2     1 ATP        -0.8438
      3 O2G         9.6430   -2.2215   -2.2225 O.co2     1 ATP        -0.8438
      4 O3G         7.9626   -4.1298   -1.9849 O.3       1 ATP        -0.7800
      5 PB          6.5206   -1.5364   -3.3633 P.3       1 ATP         1.9223
      6 O1B         7.4453   -0.8694   -4.3380 O.2       1 ATP        -0.8953
      7 O2B         5.9829   -2.9925   -3.8151 O.3       1 ATP        -0.8165
      8 O3B         7.1397   -1.7960   -1.8928 O.3       1 ATP        -0.8247
      9 PA          3.9552   -0.2066   -3.9564 P.3       1 ATP         1.6157
     10 O1A         3.2311   -1.4130   -4.5133 O.co2     1 ATP        -0.8629
     11 O2A         4.4938    0.8658   -4.8783 O.co2     1 ATP        -0.8629
     12 O3A         5.1749   -0.7199   -2.9999 O.3       1 ATP        -0.8191
     13 O5'         3.0213    0.5153   -2.8245 O.3       1 ATP        -0.5644
     14 C5'         2.2816   -0.2918   -1.9206 C.3       1 ATP         0.2062
     15 C4'         2.7248    0.0226   -0.4980 C.3       1 ATP         0.0971
     16 O4'         2.4697    1.4219   -0.2462 O.3       1 ATP        -0.3662
     17 C3'         1.9404   -0.7419    0.5596 C.3       1 ATP         0.0734
     18 O3'         2.7418   -0.8086    1.7389 O.3       1 ATP        -0.5671
     19 C2'         0.7477    0.1630    0.7858 C.3       1 ATP         0.0745
     20 O2'         0.1373   -0.0577    2.0407 O.3       1 ATP        -0.5794
     21 C1'         1.3733    1.5427    0.6747 C.3       1 ATP         0.3824
     22 N9          0.4520    2.5240    0.1767 N.pl3     1 ATP        -0.4324
     23 C8         -0.2004    2.4829   -0.9804 C.ar      1 ATP         0.2662
     24 N7         -0.9830    3.5431   -1.1568 N.pl3     1 ATP        -0.4772
     25 C5         -0.8095    4.3012   -0.0331 C.ar      1 ATP        -0.1305
     26 C6         -1.4065    5.5904    0.3585 C.ar      1 ATP         0.7186
     27 N6         -2.2501    6.2030   -0.4084 N.2       1 ATP        -0.8115
     28 N1         -0.9585    6.0272    1.5994 N.pl3     1 ATP        -0.8400
     29 C2         -0.0508    5.3009    2.3532 C.ar      1 ATP         0.6671
     30 N3          0.4890    4.1592    2.0257 N.2       1 ATP        -0.5806
     31 C4          0.0637    3.7006    0.7995 C.ar      1 ATP         0.2748
     32 HOG3        7.8871   -4.2577   -2.9545 H         1 ATP         0.4327
     33 HOB2        5.4680   -3.0713   -4.6463 H         1 ATP         0.4701
     34 H5'1        1.2163   -0.0770   -2.0471 H         1 ATP         0.0401
     35 H5'2        2.4655   -1.3443   -2.1563 H         1 ATP         0.0401
     36 H4'         3.8044   -0.1397   -0.4040 H         1 ATP         0.1136
     37 H3'         1.6764   -1.7639    0.2728 H         1 ATP         0.0693
     38 HO3'        2.2232   -1.2979    2.3953 H         1 ATP         0.4124
     39 H2'        -0.0011    0.0027    0.0003 H         1 ATP         0.0854
     40 HO2'       -0.1563   -0.9855    2.0596 H         1 ATP         0.4367
     41 H1'         1.7826    1.9024    1.6451 H         1 ATP         0.1343
     42 H8         -0.1116    1.6863   -1.6984 H         1 ATP         0.3302
     43 HN62       -2.5420    7.0730    0.0447 H         1 ATP         0.4160
     44 H2          0.1969    5.7893    3.3086 H         1 ATP         0.0756
     45 H45        -1.3097    6.9080    1.9642 H         1 ATP         0.4587
     46 H46        -1.5735    3.7351   -1.9538 H         1 ATP         0.5254
@<TRIPOS>BOND
     1    1    2 2
     2    1    3 1
     3    1    4 1
     4    1    8 1
     5    4   32 1
     6    5    6 2
     7    5    7 1
     8    5    8 1
     9    5   12 1
    10    7   33 1
    11    9   10 2
    12    9   11 1
    13    9   12 1
    14    9   13 1
    15   13   14 1
    16   14   15 1
    17   14   34 1
    18   14   35 1
    19   15   16 1
    20   15   17 1
    21   15   36 1
    22   16   21 1
    23   17   18 1
    24   17   19 1
    25   17   37 1
    26   18   38 1
    27   19   20 1
    28   19   21 1
    29   19   39 1
    30   20   40 1
    31   21   22 1
    32   21   41 1
    33   22   23 ar
    34   22   31 ar
    35   23   24 ar
    36   23   42 1
    37   24   25 ar
    38   24   46 1
    39   25   26 ar
    40   25   31 ar
    41   26   27 2
    42   26   28 ar
    43   27   43 1
    44   28   29 ar
    45   28   45 1
    46   29   30 ar
    47   29   44 1
    48   30   31 ar
@<TRIPOS>SUBSTRUCTURE
     1 ATP         1 GROUP 0 A     ****
@<TRIPOS>MOLECULE
[[[3,4-dihydroxy-5-(6-imino-7,8-dihydro-1~{H}-purin-8-ylium-9-yl)tetrahydrofuran-2-yl]methoxy-oxido-phosphoryl]oxy-hydroxy-phosphoryl] hydrogen phosphate
   46    48     1     0     0
SMALL
USER_CHARGES

@<TRIPOS>ATOM
      1 PG          6.1907   -3.6393   -6.7923 P.3       1 ATP         1.5595
      2 O1G         5.3812   -4.2757   -7.9002 O.co2     1 ATP        -0.8438
      3 O2G         7.1474   -4.4617   -5.9582 O.co2     1 ATP        -0.8438
      4 O3G         7.0048   -2.3663   -7.4110 O.3       1 ATP        -0.7800
      5 PB          4.0288   -3.3693   -4.8046 P.3       1 ATP         1.9223
      6 O1B         2.9232   -4.1389   -5.4647 O.2       1 ATP        -0.8953
      7 O2B         4.8494   -4.1824   -3.6737 O.3       1 ATP        -0.8165
      8 O3B         5.1818   -2.8284   -5.8000 O.3       1 ATP        -0.8247
      9 PA          4.4788   -0.9084   -3.2416 P.3       1 ATP         1.6157
     10 O1A         5.4276   -0.2318   -4.2069 O.co2     1 ATP        -0.8629
     11 O2A         4.9965   -1.5641   -1.9800 O.co2     1 ATP        -0.8629
     12 O3A         3.5881   -2.0049   -4.0605 O.3       1 ATP        -0.8191
     13 O5'         3.2903    0.1346   -2.8241 O.3       1 ATP        -0.5644
     14 C5'         2.2816   -0.2918   -1.9206 C.3       1 ATP         0.2062
     15 C4'         2.7248    0.0226   -0.4980 C.3       1 ATP         0.0971
     16 O4'         2.4697    1.4219   -0.2462 O.3       1 ATP        -0.3662
     17 C3'         1.9404   -0.7419    0.5596 C.3       1 ATP         0.0734
     18 O3'         2.7418   -0.8086    1.7389 O.3       1 ATP        -0.5671
     19 C2'         0.7477    0.1630    0.7858 C.3       1 ATP         0.0745
     20 O2'         0.1373   -0.0577    2.0407 O.3       1 ATP        -0.5794
     21 C1'         1.3733    1.5427    0.6747 C.3       1 ATP         0.3824
     22 N9          0.4520    2.5240    0.1767 N.pl3     1 ATP        -0.4324
     23 C8          0.2216    2.8192   -1.0985 C.ar      1 ATP         0.2662
     24 N7         -0.6906    3.7763   -1.2384 N.pl3     1 ATP        -0.4772
     25 C5         -1.0575    4.1037    0.0366 C.ar      1 ATP        -0.1305
     26 C6         -2.0291    5.0943    0.5330 C.ar      1 ATP         0.7186
     27 N6         -2.7093    5.8371   -0.2800 N.2       1 ATP        -0.8115
     28 N1         -2.1051    5.1136    1.9204 N.pl3     1 ATP        -0.8400
     29 C2         -1.3354    4.2774    2.7129 C.ar      1 ATP         0.6671
     30 N3         -0.4707    3.3945    2.2944 N.2       1 ATP        -0.5806
     31 C4         -0.3734    3.3525    0.9220 C.ar      1 ATP         0.2748
     32 HOG3        7.5804   -1.8447   -6.8120 H         1 ATP         0.4327
     33 HOB2        4.3667   -4.5254   -2.8916 H         1 ATP         0.4701
     34 H5'1        1.3514    0.2330   -2.1577 H         1 ATP         0.0401
     35 H5'2        2.1280   -1.3678   -2.0460 H         1 ATP         0.0401
     36 H4'         3.8044   -0.1397   -0.4040 H         1 ATP         0.1136
     37 H3'         1.6764   -1.7639    0.2728 H         1 ATP         0.0693
     38 HO3'        2.2232   -1.2979    2.3953 H         1 ATP         0.4124
     39 H2'        -0.0011    0.0027    0.0003 H         1 ATP         0.0854
     40 HO2'       -0.6141    0.5574    2.1082 H         1 ATP         0.4367
     41 H1'         1.7826    1.9024    1.6451 H         1 ATP         0.1343
     42 H8          0.7125    2.3429   -1.9292 H         1 ATP         0.3302
     43 HN62       -3.3217    6.4517    0.2629 H         1 ATP         0.4160
     44 H2         -1.5188    4.4223    3.7890 H         1 ATP         0.0756
     45 H45        -2.7470    5.7627    2.3665 H         1 ATP         0.4587
     46 H46        -1.0305    4.1680   -2.1054 H         1 ATP         0.5254
@<TRIPOS>BOND
     1    1    2 2
     2    1    3 1
     3    1    4 1
     4    1    8 1
     5    4   32 1
     6    5    6 2
     7    5    7 1
     8    5    8 1
     9    5   12 1
    10    7   33 1
    11    9   10 2
    12    9   11 1
    13    9   12 1
    14    9   13 1
    15   13   14 1
    16   14   15 1
    17   14   34 1
    18   14   35 1
    19   15   16 1
    20   15   17 1
    21   15   36 1
    22   16   21 1
    23   17   18 1
    24   17   19 1
    25   17   37 1
    26   18   38 1
    27   19   20 1
    28   19   21 1
    29   19   39 1
    30   20   40 1
    31   21   22 1
    32   21   41 1
    33   22   23 ar
    34   22   31 ar
    35   23   24 ar
    36   23   42 1
    37   24   25 ar
    38   24   46 1
    39   25   26 ar
    40   25   31 ar
    41   26   27 2
    42   26   28 ar
    43   27   43 1
    44   28   29 ar
    45   28   45 1
    46   29   30 ar
    47   29   44 1
    48   30   31 ar
@<TRIPOS>SUBSTRUCTURE
     1 ATP         1 GROUP 0 A     ****
@<TRIPOS>MOLECULE
[[[3,4-dihydroxy-5-(6-imino-7,8-dihydro-1~{H}-purin-8-ylium-9-yl)tetrahydrofuran-2-yl]methoxy-oxido-phosphoryl]oxy-hydroxy-phosphoryl] hydrogen phosphate
   46    48     1     0     0
SMALL
USER_CHARGES

@<TRIPOS>ATOM
      1 PG          1.2645   -4.6649   -3.8745 P.3       1 ATP         1.5595
      2 O1G         0.9317   -5.9972   -4.5084 O.co2     1 ATP        -0.8438
      3 O2G         0.3054   -3.4991   -3.9672 O.co2     1 ATP        -0.8438
      4 O3G         1.6258   -4.9151   -2.3019 O.3       1 ATP        -0.7800
      5 PB          3.6523   -2.9350   -3.9384 P.3       1 ATP         1.9223
      6 O1B         4.0469   -2.9231   -2.4912 O.2       1 ATP        -0.8953
      7 O2B         4.8845   -2.9637   -4.9845 O.3       1 ATP        -0.8165
      8 O3B         2.7351   -4.1862   -4.3925 O.3       1 ATP        -0.8247
      9 PA          3.0673   -0.0858   -4.4292 P.3       1 ATP         1.6157
     10 O1A         1.8255    0.6567   -4.8725 O.co2     1 ATP        -0.8629
     11 O2A         4.3921    0.1382   -5.1252 O.co2     1 ATP        -0.8629
     12 O3A         2.7518   -1.6878   -4.4314 O.3       1 ATP        -0.8191
     13 O5'         3.2903    0.1346   -2.8241 O.3       1 ATP        -0.5644
     14 C5'         2.2816   -0.2918   -1.9206 C.3       1 ATP         0.2062
     15 C4'         2.7248    0.0226   -0.4980 C.3       1 ATP         0.0971
     16 O4'         2.4697    1.4219   -0.2462 O.3       1 ATP        -0.3662
     17 C3'         1.9404   -0.7419    0.5596 C.3       1 ATP         0.0734
     18 O3'         2.7418   -0.8086    1.7389 O.3       1 ATP        -0.5671
     19 C2'         0.7477    0.1630    0.7858 C.3       1 ATP         0.0745
     20 O2'         0.1373   -0.0577    2.0407 O.3       1 ATP        -0.5794
     21 C1'         1.3733    1.5427    0.6747 C.3       1 ATP         0.3824
     22 N9          0.4520    2.5240    0.1767 N.pl3     1 ATP        -0.4324
     23 C8          0.5691    3.2215   -0.9485 C.ar      1 ATP         0.2662
     24 N7         -0.4499    4.0551   -1.1342 N.pl3     1 ATP        -0.4772
     25 C5         -1.2618    3.8674   -0.0512 C.ar      1 ATP        -0.1305
     26 C6         -2.5420    4.5007    0.3120 C.ar      1 ATP         0.7186
     27 N6         -3.0874    5.3993   -0.4432 N.2       1 ATP        -0.8115
     28 N1         -3.0494    4.0205    1.5133 N.pl3     1 ATP        -0.8400
     29 C2         -2.3933    3.0527    2.2567 C.ar      1 ATP         0.6671
     30 N3         -1.2611    2.4796    1.9536 N.2       1 ATP        -0.5806
     31 C4         -0.7334    2.9358    0.7669 C.ar      1 ATP         0.2748
     32 HOG3        1.8654   -4.1409   -1.7492 H         1 ATP         0.4327
     33 HOB2        5.5338   -2.2285   -4.9731 H         1 ATP         0.4701
     34 H5'1        1.3514    0.2330   -2.1577 H         1 ATP         0.0401
     35 H5'2        2.1280   -1.3678   -2.0460 H         1 ATP         0.0401
     36 H4'         3.8044   -0.1397   -0.4040 H         1 ATP         0.1136
     37 H3'         1.6764   -1.7639    0.2728 H         1 ATP         0.0693
     38 HO3'        2.2232   -1.2979    2.3953 H         1 ATP         0.4124
     39 H2'        -0.0011    0.0027    0.0003 H         1 ATP         0.0854
     40 HO2'       -0.1563   -0.9855    2.0596 H         1 ATP         0.4367
     41 H1'         1.7826    1.9024    1.6451 H         1 ATP         0.1343
     42 H8          1.3912    3.1285   -1.6365 H         1 ATP         0.3302
     43 HN62       -3.9637    5.7084   -0.0142 H         1 ATP         0.4160
     44 H2         -2.9317    2.7866    3.1796 H         1 ATP         0.0756
     45 H45        -3.9307    4.3923    1.8559 H         1 ATP         0.4587
     46 H46        -0.5835    4.6857   -1.9122 H         1 ATP         0.5254
@<TRIPOS>BOND
     1    1    2 2
     2    1    3 1
     3    1    4 1
     4    1    8 1
     5    4   32 1
     6    5    6 2
     7    5    7 1
     8    5    8 1
     9    5   12 1
    10    7   33 1
    11    9   10 2
    12    9   11 1
    13    9   12 1
    14    9   13 1
    15   13   14 1
    16   14   15 1
    17   14   34 1
    18   14   35 1
    19   15   16 1
    20   15   17 1
    21   15   36 1
    22   16   21 1
    23   17   18 1
    24   17   19 1
    25   17   37 1
    26   18   38 1
    27   19   20 1
    28   19   21 1
    29   19   39 1
    30   20   40 1
    31   21   22 1
    32   21   41 1
    33   22   23 ar
    34   22   31 ar
    35   23   24 ar
    36   23   42 1
    37   24   25 ar
    38   24   46 1
    39   25   26 ar
    40   25   31 ar
    41   26   27 2
    42   26   28 ar
    43   27   43 1
    44   28   29 ar
    45   28   45 1
    46   29   30 ar
    47   29   44 1
    48   30   31 ar
@<TRIPOS>SUBSTRUCTURE
     1 ATP         1 GROUP 0 A     ****
@<TRIPOS>MOLECULE
[[[3,4-dihydroxy-5-(6-imino-7,8-dihydro-1~{H}-purin-8-ylium-9-yl)tetrahydrofuran-2-yl]methoxy-oxido-phosphoryl]oxy-hydroxy-phosphoryl] hydrogen phosphate
   46    48     1     0     0
SMALL
USER_CHARGES

@<TRIPOS>ATOM
      1 PG          1.6899   -7.3440    7.2916 P.3       1 ATP         1.5595
      2 O1G         0.7433   -7.0174    8.4252 O.co2     1 ATP        -0.8438
      3 O2G         3.1087   -6.8200    7.2887 O.co2     1 ATP        -0.8438
      4 O3G         1.7357   -8.9656    7.1056 O.3       1 ATP        -0.7800
      5 PB         -0.4636   -7.3769    5.2769 P.3       1 ATP         1.9223
      6 O1B        -0.6703   -8.8509    5.0898 O.2       1 ATP        -0.8953
      7 O2B        -1.5193   -6.6571    6.2673 O.3       1 ATP        -0.8165
      8 O3B         0.9758   -6.9535    5.8782 O.3       1 ATP        -0.8247
      9 PA         -1.7207   -6.2768    2.8457 P.3       1 ATP         1.6157
     10 O1A        -2.8743   -5.5689    3.5224 O.co2     1 ATP        -0.8629
     11 O2A        -1.9358   -7.5875    2.1206 O.co2     1 ATP        -0.8629
     12 O3A        -0.5195   -6.4834    3.9322 O.3       1 ATP        -0.8191
     13 O5'        -0.9724   -5.2440    1.8220 O.3       1 ATP        -0.5644
     14 C5'        -0.7840   -3.8935    2.2172 C.3       1 ATP         0.2062
     15 C4'        -0.0724   -3.1466    1.1027 C.3       1 ATP         0.0971
     16 O4'        -0.8674   -3.1929   -0.0945 O.3       1 ATP        -0.3662
     17 C3'         0.1338   -1.6715    1.4027 C.3       1 ATP         0.0734
     18 O3'         1.2893   -1.4445    2.1808 O.3       1 ATP        -0.5671
     19 C2'         0.2158   -1.0724    0.0128 C.3       1 ATP         0.0745
     20 O2'         1.5141   -1.2448   -0.5513 O.3       1 ATP        -0.5794
     21 C1'        -0.7897   -1.9176   -0.7583 C.3       1 ATP         0.3824
     22 N9         -2.1040   -1.3333   -0.7704 N.pl3     1 ATP        -0.4324
     23 C8         -3.0590   -1.5123    0.1363 C.ar      1 ATP         0.2662
     24 N7         -4.1655   -0.8354   -0.1554 N.pl3     1 ATP        -0.4772
     25 C5         -3.8852   -0.1874   -1.3253 C.ar      1 ATP        -0.1305
     26 C6         -4.7113    0.7160   -2.1458 C.ar      1 ATP         0.7186
     27 N6         -5.9213    1.0209   -1.8021 N.2       1 ATP        -0.8115
     28 N1         -4.0411    1.1673   -3.2764 N.pl3     1 ATP        -0.8400
     29 C2         -2.7403    0.7865   -3.5638 C.ar      1 ATP         0.6671
     30 N3         -1.9921   -0.0108   -2.8519 N.2       1 ATP        -0.5806
     31 C4         -2.6302   -0.4747   -1.7239 C.ar      1 ATP         0.2748
     32 HOG3        2.3101   -9.3387    6.4034 H         1 ATP         0.4327
     33 HOB2       -1.5770   -6.9583    7.1992 H         1 ATP         0.4701
     34 H5'1       -1.7618   -3.4448    2.4164 H         1 ATP         0.0401
     35 H5'2       -0.1874   -3.8744    3.1341 H         1 ATP         0.0401
     36 H4'         0.8874   -3.6466    0.8805 H         1 ATP         0.1136
     37 H3'        -0.7376   -1.2333    1.9867 H         1 ATP         0.0693
     38 HO3'        1.3408   -0.4870    2.3219 H         1 ATP         0.4124
     39 H2'        -0.0384   -0.0310    0.0096 H         1 ATP         0.0854
     40 HO2'        2.1463   -0.7958    0.0370 H         1 ATP         0.4367
     41 H1'        -0.4769   -2.1002   -1.8093 H         1 ATP         0.1343
     42 H8         -2.9569   -2.1323    1.0098 H         1 ATP         0.3302
     43 HN62       -6.3169    1.6552   -2.5012 H         1 ATP         0.4160
     44 H2         -2.3612    1.2343   -4.4957 H         1 ATP         0.0756
     45 H45        -4.5223    1.7976   -3.9117 H         1 ATP         0.4587
     46 H46        -5.0218   -0.8132    0.3804 H         1 ATP         0.5254
@<TRIPOS>BOND
     1    1    2 2
     2    1    3 1
     3    1    4 1
     4    1    8 1
     5    4   32 1
     6    5    6 2
     7    5    7 1
     8    5    8 1
     9    5   12 1
    10    7   33 1
    11    9   10 2
    12    9   11 1
    13    9   12 1
    14    9   13 1
    15   13   14 1
    16   14   15 1
    17   14   34 1
    18   14   35 1
    19   15   16 1
    20   15   17 1
    21   15   36 1
    22   16   21 1
    23   17   18 1
    24   17   19 1
    25   17   37 1
    26   18   38 1
    27   19   20 1
    28   19   21 1
    29   19   39 1
    30   20   40 1
    31   21   22 1
    32   21   41 1
    33   22   23 ar
    34   22   31 ar
    35   23   24 ar
    36   23   42 1
    37   24   25 ar
    38   24   46 1
    39   25   26 ar
    40   25   31 ar
    41   26   27 2
    42   26   28 ar
    43   27   43 1
    44   28   29 ar
    45   28   45 1
    46   29   30 ar
    47   29   44 1
    48   30   31 ar
@<TRIPOS>SUBSTRUCTURE
     1 ATP         1 GROUP 0 A     ****
@<TRIPOS>MOLECULE
[[[3,4-dihydroxy-5-(6-imino-7,8-dihydro-1~{H}-purin-8-ylium-9-yl)tetrahydrofuran-2-yl]methoxy-oxido-phosphoryl]oxy-hydroxy-phosphoryl] hydrogen phosphate
   46    48     1     0     0
SMALL
USER_CHARGES

@<TRIPOS>ATOM
      1 PG          6.5706    0.4092   -6.0427 P.3       1 ATP         1.5595
      2 O1G         7.4389   -0.6347   -6.7090 O.co2     1 ATP        -0.8438
      3 O2G         7.0909    1.2263   -4.8812 O.co2     1 ATP        -0.8438
      4 O3G         6.0174    1.4318   -7.1893 O.3       1 ATP        -0.7800
      5 PB          4.8246   -1.4165   -4.5208 P.3       1 ATP         1.9223
      6 O1B         5.5098   -2.7326   -4.7418 O.2       1 ATP        -0.8953
      7 O2B         5.1574   -0.6988   -3.1110 O.3       1 ATP        -0.8165
      8 O3B         5.1527   -0.2759   -5.6182 O.3       1 ATP        -0.8247
      9 PA          2.1371   -2.2715   -3.6563 P.3       1 ATP         1.6157
     10 O1A         2.4857   -3.7434   -3.7019 O.co2     1 ATP        -0.8629
     11 O2A         0.7457   -1.7949   -4.0121 O.co2     1 ATP        -0.8629
     12 O3A         3.2103   -1.4478   -4.5705 O.3       1 ATP        -0.8191
     13 O5'         2.5245   -1.6648   -2.1878 O.3       1 ATP        -0.5644
     14 C5'         2.2816   -0.2918   -1.9206 C.3       1 ATP         0.2062
     15 C4'         2.7248    0.0226   -0.4980 C.3       1 ATP         0.0971
     16 O4'         2.4697    1.4219   -0.2462 O.3       1 ATP        -0.3662
     17 C3'         1.9404   -0.7419    0.5596 C.3       1 ATP         0.0734
     18 O3'         2.7418   -0.8086    1.7389 O.3       1 ATP        -0.5671
     19 C2'         0.7477    0.1630    0.7858 C.3       1 ATP         0.0745
     20 O2'         0.1373   -0.0577    2.0407 O.3       1 ATP        -0.5794
     21 C1'         1.3733    1.5427    0.6747 C.3       1 ATP         0.3824
     22 N9          0.4520    2.5240    0.1767 N.pl3     1 ATP        -0.4324
     23 C8         -0.2004    2.4829   -0.9804 C.ar      1 ATP         0.2662
     24 N7         -0.9830    3.5431   -1.1568 N.pl3     1 ATP        -0.4772
     25 C5         -0.8095    4.3012   -0.0331 C.ar      1 ATP        -0.1305
     26 C6         -1.4065    5.5904    0.3585 C.ar      1 ATP         0.7186
     27 N6         -2.2501    6.2030   -0.4084 N.2       1 ATP        -0.8115
     28 N1         -0.9585    6.0272    1.5994 N.pl3     1 ATP        -0.8400
     29 C2         -0.0508    5.3009    2.3532 C.ar      1 ATP         0.6671
     30 N3          0.4890    4.1592    2.0257 N.2       1 ATP        -0.5806
     31 C4          0.0637    3.7006    0.7995 C.ar      1 ATP         0.2748
     32 HOG3        5.4349    2.1712   -6.9134 H         1 ATP         0.4327
     33 HOB2        4.9385   -1.1666   -2.2770 H         1 ATP         0.4701
     34 H5'1        2.8432    0.3119   -2.6398 H         1 ATP         0.0401
     35 H5'2        1.2128   -0.0927   -2.0428 H         1 ATP         0.0401
     36 H4'         3.8044   -0.1397   -0.4040 H         1 ATP         0.1136
     37 H3'         1.6764   -1.7639    0.2728 H         1 ATP         0.0693
     38 HO3'        3.5554   -1.2733    1.4914 H         1 ATP         0.4124
     39 H2'        -0.0011    0.0027    0.0003 H         1 ATP         0.0854
     40 HO2'        0.8082    0.1199    2.7232 H         1 ATP         0.4367
     41 H1'         1.7826    1.9024    1.6451 H         1 ATP         0.1343
     42 H8         -0.1116    1.6863   -1.6984 H         1 ATP         0.3302
     43 HN62       -2.5420    7.0730    0.0447 H         1 ATP         0.4160
     44 H2          0.1969    5.7893    3.3086 H         1 ATP         0.0756
     45 H45        -1.3097    6.9080    1.9642 H         1 ATP         0.4587
     46 H46        -1.5735    3.7351   -1.9538 H         1 ATP         0.5254
@<TRIPOS>BOND
     1    1    2 2
     2    1    3 1
     3    1    4 1
     4    1    8 1
     5    4   32 1
     6    5    6 2
     7    5    7 1
     8    5    8 1
     9    5   12 1
    10    7   33 1
    11    9   10 2
    12    9   11 1
    13    9   12 1
    14    9   13 1
    15   13   14 1
    16   14   15 1
    17   14   34 1
    18   14   35 1
    19   15   16 1
    20   15   17 1
    21   15   36 1
    22   16   21 1
    23   17   18 1
    24   17   19 1
    25   17   37 1
    26   18   38 1
    27   19   20 1
    28   19   21 1
    29   19   39 1
    30   20   40 1
    31   21   22 1
    32   21   41 1
    33   22   23 ar
    34   22   31 ar
    35   23   24 ar
    36   23   42 1
    37   24   25 ar
    38   24   46 1
    39   25   26 ar
    40   25   31 ar
    41   26   27 2
    42   26   28 ar
    43   27   43 1
    44   28   29 ar
    45   28   45 1
    46   29   30 ar
    47   29   44 1
    48   30   31 ar
@<TRIPOS>SUBSTRUCTURE
     1 ATP         1 GROUP 0 A     ****
@<TRIPOS>MOLECULE
[[[3,4-dihydroxy-5-(6-imino-7,8-dihydro-1~{H}-purin-8-ylium-9-yl)tetrahydrofuran-2-yl]methoxy-oxido-phosphoryl]oxy-hydroxy-phosphoryl] hydrogen phosphate
   46    48     1     0     0
SMALL
USER_CHARGES

@<TRIPOS>ATOM
      1 PG         -2.1447   -4.9132   -2.5706 P.3       1 ATP         1.5595
      2 O1G        -1.6426   -6.3312   -2.7285 O.co2     1 ATP        -0.8438
      3 O2G        -3.4620   -4.4834   -3.1770 O.co2     1 ATP        -0.8438
      4 O3G        -2.1607   -4.5431   -0.9804 O.3       1 ATP        -0.7800
      5 PB          0.5723   -3.7668   -2.6030 P.3       1 ATP         1.9223
      6 O1B         0.7968   -3.4986   -1.1442 O.2       1 ATP        -0.8953
      7 O2B         1.2355   -5.1324   -3.1587 O.3       1 ATP        -0.8165
      8 O3B        -0.9761   -3.8824   -3.0522 O.3       1 ATP        -0.8247
      9 PA          2.6194   -2.0514   -3.8552 P.3       1 ATP         1.6157
     10 O1A         2.5492   -0.8935   -4.8270 O.co2     1 ATP        -0.8629
     11 O2A         3.5431   -3.2220   -4.1125 O.co2     1 ATP        -0.8629
     12 O3A         1.1116   -2.6310   -3.6173 O.3       1 ATP        -0.8191
     13 O5'         2.9216   -1.4836   -2.3516 O.3       1 ATP        -0.5644
     14 C5'         2.2816   -0.2918   -1.9206 C.3       1 ATP         0.2062
     15 C4'         2.7248    0.0226   -0.4980 C.3       1 ATP         0.0971
     16 O4'         2.4697    1.4219   -0.2462 O.3       1 ATP        -0.3662
     17 C3'         1.9404   -0.7419    0.5596 C.3       1 ATP         0.0734
     18 O3'         2.7418   -0.8086    1.7389 O.3       1 ATP        -0.5671
     19 C2'         0.7477    0.1630    0.7858 C.3       1 ATP         0.0745
     20 O2'         0.1373   -0.0577    2.0407 O.3       1 ATP        -0.5794
     21 C1'         1.3733    1.5427    0.6747 C.3       1 ATP         0.3824
     22 N9          0.4520    2.5240    0.1767 N.pl3     1 ATP        -0.4324
     23 C8         -0.2004    2.4829   -0.9804 C.ar      1 ATP         0.2662
     24 N7         -0.9830    3.5431   -1.1568 N.pl3     1 ATP        -0.4772
     25 C5         -0.8095    4.3012   -0.0331 C.ar      1 ATP        -0.1305
     26 C6         -1.4065    5.5904    0.3585 C.ar      1 ATP         0.7186
     27 N6         -2.2501    6.2030   -0.4084 N.2       1 ATP        -0.8115
     28 N1         -0.9585    6.0272    1.5994 N.pl3     1 ATP        -0.8400
     29 C2         -0.0508    5.3009    2.3532 C.ar      1 ATP         0.6671
     30 N3          0.4890    4.1592    2.0257 N.2       1 ATP        -0.5806
     31 C4          0.0637    3.7006    0.7995 C.ar      1 ATP         0.2748
     32 HOG3       -2.4645   -3.6498   -0.7121 H         1 ATP         0.4327
     33 HOB2        2.2074   -5.2485   -3.0940 H         1 ATP         0.4701
     34 H5'1        2.5589    0.5217   -2.5976 H         1 ATP         0.0401
     35 H5'2        1.1982   -0.4388   -1.9617 H         1 ATP         0.0401
     36 H4'         3.8044   -0.1397   -0.4040 H         1 ATP         0.1136
     37 H3'         1.6764   -1.7639    0.2728 H         1 ATP         0.0693
     38 HO3'        2.2232   -1.2979    2.3953 H         1 ATP         0.4124
     39 H2'        -0.0011    0.0027    0.0003 H         1 ATP         0.0854
     40 HO2'       -0.6141    0.5574    2.1082 H         1 ATP         0.4367
     41 H1'         1.7826    1.9024    1.6451 H         1 ATP         0.1343
     42 H8         -0.1116    1.6863   -1.6984 H         1 ATP         0.3302
     43 HN62       -2.5420    7.0730    0.0447 H         1 ATP         0.4160
     44 H2          0.1969    5.7893    3.3086 H         1 ATP         0.0756
     45 H45        -1.3097    6.9080    1.9642 H         1 ATP         0.4587
     46 H46        -1.5735    3.7351   -1.9538 H         1 ATP         0.5254
@<TRIPOS>BOND
     1    1    2 2
     2    1    3 1
     3    1    4 1
     4    1    8 1
     5    4   32 1
     6    5    6 2
     7    5    7 1
     8    5    8 1
     9    5   12 1
    10    7   33 1
    11    9   10 2
    12    9   11 1
    13    9   12 1
    14    9   13 1
    15   13   14 1
    16   14   15 1
    17   14   34 1
    18   14   35 1
    19   15   16 1
    20   15   17 1
    21   15   36 1
    22   16   21 1
    23   17   18 1
    24   17   19 1
    25   17   37 1
    26   18   38 1
    27   19   20 1
    28   19   21 1
    29   19   39 1
    30   20   40 1
    31   21   22 1
    32   21   41 1
    33   22   23 ar
    34   22   31 ar
    35   23   24 ar
    36   23   42 1
    37   24   25 ar
    38   24   46 1
    39   25   26 ar
    40   25   31 ar
    41   26   27 2
    42   26   28 ar
    43   27   43 1
    44   28   29 ar
    45   28   45 1
    46   29   30 ar
    47   29   44 1
    48   30   31 ar
@<TRIPOS>SUBSTRUCTURE
     1 ATP         1 GROUP 0 A     ****
@<TRIPOS>MOLECULE
[[[3,4-dihydroxy-5-(6-imino-7,8-dihydro-1~{H}-purin-8-ylium-9-yl)tetrahydrofuran-2-yl]methoxy-oxido-phosphoryl]oxy-hydroxy-phosphoryl] hydrogen phosphate
   46    48     1     0     0
SMALL
USER_CHARGES

@<TRIPOS>ATOM
      1 PG          0.3649    0.6847   -7.8449 P.3       1 ATP         1.5595
      2 O1G         0.9718   -0.1040   -8.9838 O.co2     1 ATP        -0.8438
      3 O2G         0.4869    2.1913   -7.7914 O.co2     1 ATP        -0.8438
      4 O3G        -1.2144    0.2879   -7.7234 O.3       1 ATP        -0.7800
      5 PB          0.8464   -1.4597   -5.8783 P.3       1 ATP         1.9223
      6 O1B        -0.5228   -2.0600   -5.7551 O.2       1 ATP        -0.8953
      7 O2B         1.8564   -2.2524   -6.8607 O.3       1 ATP        -0.8165
      8 O3B         0.8861    0.0584   -6.4320 O.3       1 ATP        -0.8247
      9 PA          2.1631   -2.4497   -3.4314 P.3       1 ATP         1.6157
     10 O1A         3.1776   -3.3495   -4.1029 O.co2     1 ATP        -0.8629
     11 O2A         0.9355   -3.0309   -2.7643 O.co2     1 ATP        -0.8629
     12 O3A         1.6767   -1.3151   -4.5002 O.3       1 ATP        -0.8191
     13 O5'         2.9216   -1.4836   -2.3516 O.3       1 ATP        -0.5644
     14 C5'         2.2816   -0.2918   -1.9206 C.3       1 ATP         0.2062
     15 C4'         2.7248    0.0226   -0.4980 C.3       1 ATP         0.0971
     16 O4'         2.4697    1.4219   -0.2462 O.3       1 ATP        -0.3662
     17 C3'         1.9404   -0.7419    0.5596 C.3       1 ATP         0.0734
     18 O3'         2.7418   -0.8086    1.7389 O.3       1 ATP        -0.5671
     19 C2'         0.7477    0.1630    0.7858 C.3       1 ATP         0.0745
     20 O2'         0.1373   -0.0577    2.0407 O.3       1 ATP        -0.5794
     21 C1'         1.3733    1.5427    0.6747 C.3       1 ATP         0.3824
     22 N9          0.4520    2.5240    0.1767 N.pl3     1 ATP        -0.4324
     23 C8          0.2216    2.8192   -1.0985 C.ar      1 ATP         0.2662
     24 N7         -0.6906    3.7763   -1.2384 N.pl3     1 ATP        -0.4772
     25 C5         -1.0575    4.1037    0.0366 C.ar      1 ATP        -0.1305
     26 C6         -2.0291    5.0943    0.5330 C.ar      1 ATP         0.7186
     27 N6         -2.7093    5.8371   -0.2800 N.2       1 ATP        -0.8115
     28 N1         -2.1051    5.1136    1.9204 N.pl3     1 ATP        -0.8400
     29 C2         -1.3354    4.2774    2.7129 C.ar      1 ATP         0.6671
     30 N3         -0.4707    3.3945    2.2944 N.2       1 ATP        -0.5806
     31 C4         -0.3734    3.3525    0.9220 C.ar      1 ATP         0.2748
     32 HOG3       -1.7516    0.7191   -7.0251 H         1 ATP         0.4327
     33 HOB2        2.0785   -3.1864   -6.6595 H         1 ATP         0.4701
     34 H5'1        2.5589    0.5217   -2.5976 H         1 ATP         0.0401
     35 H5'2        1.1982   -0.4388   -1.9617 H         1 ATP         0.0401
     36 H4'         3.8044   -0.1397   -0.4040 H         1 ATP         0.1136
     37 H3'         1.6764   -1.7639    0.2728 H         1 ATP         0.0693
     38 HO3'        2.2232   -1.2979    2.3953 H         1 ATP         0.4124
     39 H2'        -0.0011    0.0027    0.0003 H         1 ATP         0.0854
     40 HO2'       -0.1563   -0.9855    2.0596 H         1 ATP         0.4367
     41 H1'         1.7826    1.9024    1.6451 H         1 ATP         0.1343
     42 H8          0.7125    2.3429   -1.9292 H         1 ATP         0.3302
     43 HN62       -3.3217    6.4517    0.2629 H         1 ATP         0.4160
     44 H2         -1.5188    4.4223    3.7890 H         1 ATP         0.0756
     45 H45        -2.7470    5.7627    2.3665 H         1 ATP         0.4587
     46 H46        -1.0305    4.1680   -2.1054 H         1 ATP         0.5254
@<TRIPOS>BOND
     1    1    2 2
     2    1    3 1
     3    1    4 1
     4    1    8 1
     5    4   32 1
     6    5    6 2
     7    5    7 1
     8    5    8 1
     9    5   12 1
    10    7   33 1
    11    9   10 2
    12    9   11 1
    13    9   12 1
    14    9   13 1
    15   13   14 1
    16   14   15 1
    17   14   34 1
    18   14   35 1
    19   15   16 1
    20   15   17 1
    21   15   36 1
    22   16   21 1
    23   17   18 1
    24   17   19 1
    25   17   37 1
    26   18   38 1
    27   19   20 1
    28   19   21 1
    29   19   39 1
    30   20   40 1
    31   21   22 1
    32   21   41 1
    33   22   23 ar
    34   22   31 ar
    35   23   24 ar
    36   23   42 1
    37   24   25 ar
    38   24   46 1
    39   25   26 ar
    40   25   31 ar
    41   26   27 2
    42   26   28 ar
    43   27   43 1
    44   28   29 ar
    45   28   45 1
    46   29   30 ar
    47   29   44 1
    48   30   31 ar
@<TRIPOS>SUBSTRUCTURE
     1 ATP         1 GROUP 0 A     ****
@<TRIPOS>MOLECULE
[[[3,4-dihydroxy-5-(6-imino-7,8-dihydro-1~{H}-purin-8-ylium-9-yl)tetrahydrofuran-2-yl]methoxy-oxido-phosphoryl]oxy-hydroxy-phosphoryl] hydrogen phosphate
   46    48     1     0     0
SMALL
USER_CHARGES

@<TRIPOS>ATOM
      1 PG         -0.4470   -4.7065    0.1211 P.3       1 ATP         1.5595
      2 O1G         0.6448   -3.7893    0.6253 O.co2     1 ATP        -0.8438
      3 O2G        -0.2466   -6.2051    0.0826 O.co2     1 ATP        -0.8438
      4 O3G        -1.8163   -4.3877    0.9516 O.3       1 ATP        -0.7800
      5 PB         -0.1384   -4.1692   -2.7623 P.3       1 ATP         1.9223
      6 O1B         0.3206   -5.5063   -3.2642 O.2       1 ATP        -0.8953
      7 O2B        -1.1438   -3.3753   -3.7484 O.3       1 ATP        -0.8165
      8 O3B        -0.9272   -4.1962   -1.3517 O.3       1 ATP        -0.8247
      9 PA          2.1631   -2.4497   -3.4314 P.3       1 ATP         1.6157
     10 O1A         1.4759   -1.5969   -4.4756 O.co2     1 ATP        -0.8629
     11 O2A         3.1219   -3.5474   -3.8381 O.co2     1 ATP        -0.8629
     12 O3A         1.0291   -3.0970   -2.4510 O.3       1 ATP        -0.8191
     13 O5'         2.9216   -1.4836   -2.3516 O.3       1 ATP        -0.5644
     14 C5'         2.2816   -0.2918   -1.9206 C.3       1 ATP         0.2062
     15 C4'         2.7248    0.0226   -0.4980 C.3       1 ATP         0.0971
     16 O4'         2.4697    1.4219   -0.2462 O.3       1 ATP        -0.3662
     17 C3'         1.9404   -0.7419    0.5596 C.3       1 ATP         0.0734
     18 O3'         2.7418   -0.8086    1.7389 O.3       1 ATP        -0.5671
     19 C2'         0.7477    0.1630    0.7858 C.3       1 ATP         0.0745
     20 O2'         0.1373   -0.0577    2.0407 O.3       1 ATP        -0.5794
     21 C1'         1.3733    1.5427    0.6747 C.3       1 ATP         0.3824
     22 N9          0.4520    2.5240    0.1767 N.pl3     1 ATP        -0.4324
     23 C8         -0.2004    2.4829   -0.9804 C.ar      1 ATP         0.2662
     24 N7         -0.9830    3.5431   -1.1568 N.pl3     1 ATP        -0.4772
     25 C5         -0.8095    4.3012   -0.0331 C.ar      1 ATP        -0.1305
     26 C6         -1.4065    5.5904    0.3585 C.ar      1 ATP         0.7186
     27 N6         -2.2501    6.2030   -0.4084 N.2       1 ATP        -0.8115
     28 N1         -0.9585    6.0272    1.5994 N.pl3     1 ATP        -0.8400
     29 C2         -0.0508    5.3009    2.3532 C.ar      1 ATP         0.6671
     30 N3          0.4890    4.1592    2.0257 N.2       1 ATP        -0.5806
     31 C4          0.0637    3.7006    0.7995 C.ar      1 ATP         0.2748
     32 HOG3       -2.6223   -4.9047    0.7388 H         1 ATP         0.4327
     33 HOB2       -0.8377   -3.1421   -4.6507 H         1 ATP         0.4701
     34 H5'1        2.5589    0.5217   -2.5976 H         1 ATP         0.0401
     35 H5'2        1.1982   -0.4388   -1.9617 H         1 ATP         0.0401
     36 H4'         3.8044   -0.1397   -0.4040 H         1 ATP         0.1136
     37 H3'         1.6764   -1.7639    0.2728 H         1 ATP         0.0693
     38 HO3'        2.2232   -1.2979    2.3953 H         1 ATP         0.4124
     39 H2'        -0.0011    0.0027    0.0003 H         1 ATP         0.0854
     40 HO2'       -0.6141    0.5574    2.1082 H         1 ATP         0.4367
     41 H1'         1.7826    1.9024    1.6451 H         1 ATP         0.1343
     42 H8         -0.1116    1.6863   -1.6984 H         1 ATP         0.3302
     43 HN62       -2.5420    7.0730    0.0447 H         1 ATP         0.4160
     44 H2          0.1969    5.7893    3.3086 H         1 ATP         0.0756
     45 H45        -1.3097    6.9080    1.9642 H         1 ATP         0.4587
     46 H46        -1.5735    3.7351   -1.9538 H         1 ATP         0.5254
@<TRIPOS>BOND
     1    1    2 2
     2    1    3 1
     3    1    4 1
     4    1    8 1
     5    4   32 1
     6    5    6 2
     7    5    7 1
     8    5    8 1
     9    5   12 1
    10    7   33 1
    11    9   10 2
    12    9   11 1
    13    9   12 1
    14    9   13 1
    15   13   14 1
    16   14   15 1
    17   14   34 1
    18   14   35 1
    19   15   16 1
    20   15   17 1
    21   15   36 1
    22   16   21 1
    23   17   18 1
    24   17   19 1
    25   17   37 1
    26   18   38 1
    27   19   20 1
    28   19   21 1
    29   19   39 1
    30   20   40 1
    31   21   22 1
    32   21   41 1
    33   22   23 ar
    34   22   31 ar
    35   23   24 ar
    36   23   42 1
    37   24   25 ar
    38   24   46 1
    39   25   26 ar
    40   25   31 ar
    41   26   27 2
    42   26   28 ar
    43   27   43 1
    44   28   29 ar
    45   28   45 1
    46   29   30 ar
    47   29   44 1
    48   30   31 ar
@<TRIPOS>SUBSTRUCTURE
     1 ATP         1 GROUP 0 A     ****
@<TRIPOS>MOLECULE
[[[3,4-dihydroxy-5-(6-imino-7,8-dihydro-1~{H}-purin-8-ylium-9-yl)tetrahydrofuran-2-yl]methoxy-oxido-phosphoryl]oxy-hydroxy-phosphoryl] hydrogen phosphate
   46    48     1     0     0
SMALL
USER_CHARGES

@<TRIPOS>ATOM
      1 PG         -4.9846   -1.6804    6.8252 P.3       1 ATP         1.5595
      2 O1G        -5.9853   -2.8077    6.9500 O.co2     1 ATP        -0.8438
      3 O2G        -5.3758   -0.3598    6.2004 O.co2     1 ATP        -0.8438
      4 O3G        -4.3471   -1.3877    8.2997 O.3       1 ATP        -0.7800
      5 PB         -2.7103   -3.5159    6.4297 P.3       1 ATP         1.9223
      6 O1B        -2.0716   -3.4910    7.7869 O.2       1 ATP        -0.8953
      7 O2B        -3.6715   -4.7848    6.1479 O.3       1 ATP        -0.8165
      8 O3B        -3.6449   -2.2431    6.0844 O.3       1 ATP        -0.8247
      9 PA         -0.5251   -4.5707    4.7523 P.3       1 ATP         1.6157
     10 O1A        -1.1708   -5.8915    4.3939 O.co2     1 ATP        -0.8629
     11 O2A         0.5743   -4.5036    5.7899 O.co2     1 ATP        -0.8629
     12 O3A        -1.6935   -3.5111    5.1745 O.3       1 ATP        -0.8191
     13 O5'         0.0118   -3.8395    3.3916 O.3       1 ATP        -0.5644
     14 C5'        -0.7840   -3.8935    2.2172 C.3       1 ATP         0.2062
     15 C4'        -0.0724   -3.1466    1.1027 C.3       1 ATP         0.0971
     16 O4'        -0.8674   -3.1929   -0.0945 O.3       1 ATP        -0.3662
     17 C3'         0.1338   -1.6715    1.4027 C.3       1 ATP         0.0734
     18 O3'         1.2893   -1.4445    2.1808 O.3       1 ATP        -0.5671
     19 C2'         0.2158   -1.0724    0.0128 C.3       1 ATP         0.0745
     20 O2'         1.5141   -1.2448   -0.5513 O.3       1 ATP        -0.5794
     21 C1'        -0.7897   -1.9176   -0.7583 C.3       1 ATP         0.3824
     22 N9         -2.1040   -1.3333   -0.7704 N.pl3     1 ATP        -0.4324
     23 C8         -3.0590   -1.5123    0.1363 C.ar      1 ATP         0.2662
     24 N7         -4.1655   -0.8354   -0.1554 N.pl3     1 ATP        -0.4772
     25 C5         -3.8852   -0.1874   -1.3253 C.ar      1 ATP        -0.1305
     26 C6         -4.7113    0.7160   -2.1458 C.ar      1 ATP         0.7186
     27 N6         -5.9213    1.0209   -1.8021 N.2       1 ATP        -0.8115
     28 N1         -4.0411    1.1673   -3.2764 N.pl3     1 ATP        -0.8400
     29 C2         -2.7403    0.7865   -3.5638 C.ar      1 ATP         0.6671
     30 N3         -1.9921   -0.0108   -2.8519 N.2       1 ATP        -0.5806
     31 C4         -2.6302   -0.4747   -1.7239 C.ar      1 ATP         0.2748
     32 HOG3       -3.6757   -0.6777    8.3853 H         1 ATP         0.4327
     33 HOB2       -3.2908   -5.6877    6.1926 H         1 ATP         0.4701
     34 H5'1       -0.9348   -4.9415    1.9415 H         1 ATP         0.0401
     35 H5'2       -1.7548   -3.4350    2.4278 H         1 ATP         0.0401
     36 H4'         0.8874   -3.6466    0.8805 H         1 ATP         0.1136
     37 H3'        -0.7376   -1.2333    1.9867 H         1 ATP         0.0693
     38 HO3'        1.1626   -1.9325    3.0084 H         1 ATP         0.4124
     39 H2'        -0.0384   -0.0310    0.0096 H         1 ATP         0.0854
     40 HO2'        2.1463   -0.7958    0.0370 H         1 ATP         0.4367
     41 H1'        -0.4769   -2.1002   -1.8093 H         1 ATP         0.1343
     42 H8         -2.9569   -2.1323    1.0098 H         1 ATP         0.3302
     43 HN62       -6.3169    1.6552   -2.5012 H         1 ATP         0.4160
     44 H2         -2.3612    1.2343   -4.4957 H         1 ATP         0.0756
     45 H45        -4.5223    1.7976   -3.9117 H         1 ATP         0.4587
     46 H46        -5.0218   -0.8132    0.3804 H         1 ATP         0.5254
@<TRIPOS>BOND
     1    1    2 2
     2    1    3 1
     3    1    4 1
     4    1    8 1
     5    4   32 1
     6    5    6 2
     7    5    7 1
     8    5    8 1
     9    5   12 1
    10    7   33 1
    11    9   10 2
    12    9   11 1
    13    9   12 1
    14    9   13 1
    15   13   14 1
    16   14   15 1
    17   14   34 1
    18   14   35 1
    19   15   16 1
    20   15   17 1
    21   15   36 1
    22   16   21 1
    23   17   18 1
    24   17   19 1
    25   17   37 1
    26   18   38 1
    27   19   20 1
    28   19   21 1
    29   19   39 1
    30   20   40 1
    31   21   22 1
    32   21   41 1
    33   22   23 ar
    34   22   31 ar
    35   23   24 ar
    36   23   42 1
    37   24   25 ar
    38   24   46 1
    39   25   26 ar
    40   25   31 ar
    41   26   27 2
    42   26   28 ar
    43   27   43 1
    44   28   29 ar
    45   28   45 1
    46   29   30 ar
    47   29   44 1
    48   30   31 ar
@<TRIPOS>SUBSTRUCTURE
     1 ATP         1 GROUP 0 A     ****
@<TRIPOS>MOLECULE
[[[3,4-dihydroxy-5-(6-imino-7,8-dihydro-1~{H}-purin-8-ylium-9-yl)tetrahydrofuran-2-yl]methoxy-oxido-phosphoryl]oxy-hydroxy-phosphoryl] hydrogen phosphate
   46    48     1     0     0
SMALL
USER_CHARGES

@<TRIPOS>ATOM
      1 PG         -0.9847    0.7421   -5.3695 P.3       1 ATP         1.5595
      2 O1G        -1.6602    1.9268   -6.0237 O.co2     1 ATP        -0.8438
      3 O2G        -0.5345    0.8034   -3.9270 O.co2     1 ATP        -0.8438
      4 O3G        -1.9395   -0.5688   -5.5594 O.3       1 ATP        -0.7800
      5 PB          1.2428   -1.0148   -6.1754 P.3       1 ATP         1.9223
      6 O1B         0.5561   -2.3464   -6.2503 O.2       1 ATP        -0.8953
      7 O2B         2.3638   -0.7570   -7.3114 O.3       1 ATP        -0.8165
      8 O3B         0.2700    0.2702   -6.2986 O.3       1 ATP        -0.8247
      9 PA          2.8619    0.6169   -4.3269 P.3       1 ATP         1.6157
     10 O1A         1.9202    1.7974   -4.2284 O.co2     1 ATP        -0.8629
     11 O2A         4.1141    0.6950   -5.1728 O.co2     1 ATP        -0.8629
     12 O3A         2.0115   -0.6976   -4.7905 O.3       1 ATP        -0.8191
     13 O5'         3.2903    0.1346   -2.8241 O.3       1 ATP        -0.5644
     14 C5'         2.2816   -0.2918   -1.9206 C.3       1 ATP         0.2062
     15 C4'         2.7248    0.0226   -0.4980 C.3       1 ATP         0.0971
     16 O4'         2.4697    1.4219   -0.2462 O.3       1 ATP        -0.3662
     17 C3'         1.9404   -0.7419    0.5596 C.3       1 ATP         0.0734
     18 O3'         2.7418   -0.8086    1.7389 O.3       1 ATP        -0.5671
     19 C2'         0.7477    0.1630    0.7858 C.3       1 ATP         0.0745
     20 O2'         0.1373   -0.0577    2.0407 O.3       1 ATP        -0.5794
     21 C1'         1.3733    1.5427    0.6747 C.3       1 ATP         0.3824
     22 N9          0.4520    2.5240    0.1767 N.pl3     1 ATP        -0.4324
     23 C8          0.2216    2.8192   -1.0985 C.ar      1 ATP         0.2662
     24 N7         -0.6906    3.7763   -1.2384 N.pl3     1 ATP        -0.4772
     25 C5         -1.0575    4.1037    0.0366 C.ar      1 ATP        -0.1305
     26 C6         -2.0291    5.0943    0.5330 C.ar      1 ATP         0.7186
     27 N6         -2.7093    5.8371   -0.2800 N.2       1 ATP        -0.8115
     28 N1         -2.1051    5.1136    1.9204 N.pl3     1 ATP        -0.8400
     29 C2         -1.3354    4.2774    2.7129 C.ar      1 ATP         0.6671
     30 N3         -0.4707    3.3945    2.2944 N.2       1 ATP        -0.5806
     31 C4         -0.3734    3.3525    0.9220 C.ar      1 ATP         0.2748
     32 HOG3       -1.6372   -1.4243   -5.1866 H         1 ATP         0.4327
     33 HOB2        3.1338   -1.3625   -7.3643 H         1 ATP         0.4701
     34 H5'1        1.3514    0.2330   -2.1577 H         1 ATP         0.0401
     35 H5'2        2.1280   -1.3678   -2.0460 H         1 ATP         0.0401
     36 H4'         3.8044   -0.1397   -0.4040 H         1 ATP         0.1136
     37 H3'         1.6764   -1.7639    0.2728 H         1 ATP         0.0693
     38 HO3'        2.2232   -1.2979    2.3953 H         1 ATP         0.4124
     39 H2'        -0.0011    0.0027    0.0003 H         1 ATP         0.0854
     40 HO2'       -0.1563   -0.9855    2.0596 H         1 ATP         0.4367
     41 H1'         1.7826    1.9024    1.6451 H         1 ATP         0.1343
     42 H8          0.7125    2.3429   -1.9292 H         1 ATP         0.3302
     43 HN62       -3.3217    6.4517    0.2629 H         1 ATP         0.4160
     44 H2         -1.5188    4.4223    3.7890 H         1 ATP         0.0756
     45 H45        -2.7470    5.7627    2.3665 H         1 ATP         0.4587
     46 H46        -1.0305    4.1680   -2.1054 H         1 ATP         0.5254
@<TRIPOS>BOND
     1    1    2 2
     2    1    3 1
     3    1    4 1
     4    1    8 1
     5    4   32 1
     6    5    6 2
     7    5    7 1
     8    5    8 1
     9    5   12 1
    10    7   33 1
    11    9   10 2
    12    9   11 1
    13    9   12 1
    14    9   13 1
    15   13   14 1
    16   14   15 1
    17   14   34 1
    18   14   35 1
    19   15   16 1
    20   15   17 1
    21   15   36 1
    22   16   21 1
    23   17   18 1
    24   17   19 1
    25   17   37 1
    26   18   38 1
    27   19   20 1
    28   19   21 1
    29   19   39 1
    30   20   40 1
    31   21   22 1
    32   21   41 1
    33   22   23 ar
    34   22   31 ar
    35   23   24 ar
    36   23   42 1
    37   24   25 ar
    38   24   46 1
    39   25   26 ar
    40   25   31 ar
    41   26   27 2
    42   26   28 ar
    43   27   43 1
    44   28   29 ar
    45   28   45 1
    46   29   30 ar
    47   29   44 1
    48   30   31 ar
@<TRIPOS>SUBSTRUCTURE
     1 ATP         1 GROUP 0 A     ****
@<TRIPOS>MOLECULE
[[[3,4-dihydroxy-5-(6-imino-7,8-dihydro-1~{H}-purin-8-ylium-9-yl)tetrahydrofuran-2-yl]methoxy-oxido-phosphoryl]oxy-hydroxy-phosphoryl] hydrogen phosphate
   46    48     1     0     0
SMALL
USER_CHARGES

@<TRIPOS>ATOM
      1 PG         -6.1770   -6.2497    2.9021 P.3       1 ATP         1.5595
      2 O1G        -7.4416   -5.4299    2.7742 O.co2     1 ATP        -0.8438
      3 O2G        -5.5000   -6.4296    4.2425 O.co2     1 ATP        -0.8438
      4 O3G        -6.4479   -7.7246    2.2560 O.3       1 ATP        -0.7800
      5 PB         -3.6321   -6.2878    1.4121 P.3       1 ATP         1.9223
      6 O1B        -3.6369   -7.6808    0.8554 O.2       1 ATP        -0.8953
      7 O2B        -3.0300   -5.1575    0.4254 O.3       1 ATP        -0.8165
      8 O3B        -5.0827   -5.7046    1.8225 O.3       1 ATP        -0.8247
      9 PA         -1.2302   -6.3289    3.1239 P.3       1 ATP         1.6157
     10 O1A        -0.8645   -7.7466    2.7414 O.co2     1 ATP        -0.8629
     11 O2A        -0.9559   -5.8088    4.5182 O.co2     1 ATP        -0.8629
     12 O3A        -2.8089   -6.0834    2.7868 O.3       1 ATP        -0.8191
     13 O5'        -0.5687   -5.2869    2.0510 O.3       1 ATP        -0.5644
     14 C5'        -0.7840   -3.8935    2.2172 C.3       1 ATP         0.2062
     15 C4'        -0.0724   -3.1466    1.1027 C.3       1 ATP         0.0971
     16 O4'        -0.8674   -3.1929   -0.0945 O.3       1 ATP        -0.3662
     17 C3'         0.1338   -1.6715    1.4027 C.3       1 ATP         0.0734
     18 O3'         1.2893   -1.4445    2.1808 O.3       1 ATP        -0.5671
     19 C2'         0.2158   -1.0724    0.0128 C.3       1 ATP         0.0745
     20 O2'         1.5141   -1.2448   -0.5513 O.3       1 ATP        -0.5794
     21 C1'        -0.7897   -1.9176   -0.7583 C.3       1 ATP         0.3824
     22 N9         -2.1040   -1.3333   -0.7704 N.pl3     1 ATP        -0.4324
     23 C8         -3.0590   -1.5123    0.1363 C.ar      1 ATP         0.2662
     24 N7         -4.1655   -0.8354   -0.1554 N.pl3     1 ATP        -0.4772
     25 C5         -3.8852   -0.1874   -1.3253 C.ar      1 ATP        -0.1305
     26 C6         -4.7113    0.7160   -2.1458 C.ar      1 ATP         0.7186
     27 N6         -5.9213    1.0209   -1.8021 N.2       1 ATP        -0.8115
     28 N1         -4.0411    1.1673   -3.2764 N.pl3     1 ATP        -0.8400
     29 C2         -2.7403    0.7865   -3.5638 C.ar      1 ATP         0.6671
     30 N3         -1.9921   -0.0108   -2.8519 N.2       1 ATP        -0.5806
     31 C4         -2.6302   -0.4747   -1.7239 C.ar      1 ATP         0.2748
     32 HOG3       -5.7167   -8.3785    2.2625 H         1 ATP         0.4327
     33 HOB2       -2.1017   -5.2405    0.1194 H         1 ATP         0.4701
     34 H5'1       -1.8598   -3.6968    2.1850 H         1 ATP         0.0401
     35 H5'2       -0.3933   -3.5903    3.1931 H         1 ATP         0.0401
     36 H4'         0.8874   -3.6466    0.8805 H         1 ATP         0.1136
     37 H3'        -0.7376   -1.2333    1.9867 H         1 ATP         0.0693
     38 HO3'        1.3408   -0.4870    2.3219 H         1 ATP         0.4124
     39 H2'        -0.0384   -0.0310    0.0096 H         1 ATP         0.0854
     40 HO2'        2.1463   -0.7958    0.0370 H         1 ATP         0.4367
     41 H1'        -0.4769   -2.1002   -1.8093 H         1 ATP         0.1343
     42 H8         -2.9569   -2.1323    1.0098 H         1 ATP         0.3302
     43 HN62       -6.3169    1.6552   -2.5012 H         1 ATP         0.4160
     44 H2         -2.3612    1.2343   -4.4957 H         1 ATP         0.0756
     45 H45        -4.5223    1.7976   -3.9117 H         1 ATP         0.4587
     46 H46        -5.0218   -0.8132    0.3804 H         1 ATP         0.5254
@<TRIPOS>BOND
     1    1    2 2
     2    1    3 1
     3    1    4 1
     4    1    8 1
     5    4   32 1
     6    5    6 2
     7    5    7 1
     8    5    8 1
     9    5   12 1
    10    7   33 1
    11    9   10 2
    12    9   11 1
    13    9   12 1
    14    9   13 1
    15   13   14 1
    16   14   15 1
    17   14   34 1
    18   14   35 1
    19   15   16 1
    20   15   17 1
    21   15   36 1
    22   16   21 1
    23   17   18 1
    24   17   19 1
    25   17   37 1
    26   18   38 1
    27   19   20 1
    28   19   21 1
    29   19   39 1
    30   20   40 1
    31   21   22 1
    32   21   41 1
    33   22   23 ar
    34   22   31 ar
    35   23   24 ar
    36   23   42 1
    37   24   25 ar
    38   24   46 1
    39   25   26 ar
    40   25   31 ar
    41   26   27 2
    42   26   28 ar
    43   27   43 1
    44   28   29 ar
    45   28   45 1
    46   29   30 ar
    47   29   44 1
    48   30   31 ar
@<TRIPOS>SUBSTRUCTURE
     1 ATP         1 GROUP 0 A     ****
@<TRIPOS>MOLECULE
[[[3,4-dihydroxy-5-(6-imino-7,8-dihydro-1~{H}-purin-8-ylium-9-yl)tetrahydrofuran-2-yl]methoxy-oxido-phosphoryl]oxy-hydroxy-phosphoryl] hydrogen phosphate
   46    48     1     0     0
SMALL
USER_CHARGES

@<TRIPOS>ATOM
      1 PG          4.2911    1.0578   -7.3286 P.3       1 ATP         1.5595
      2 O1G         4.4571    2.4859   -7.7983 O.co2     1 ATP        -0.8438
      3 O2G         3.0010    0.3059   -7.5686 O.co2     1 ATP        -0.8438
      4 O3G         5.5265    0.1701   -7.9220 O.3       1 ATP        -0.7800
      5 PB          4.8132   -0.3013   -4.7638 P.3       1 ATP         1.9223
      6 O1B         5.8571   -1.3006   -5.1665 O.2       1 ATP        -0.8953
      7 O2B         5.0236    0.3586   -3.3030 O.3       1 ATP        -0.8165
      8 O3B         4.6674    0.9759   -5.7437 O.3       1 ATP        -0.8247
      9 PA          2.6194   -2.0514   -3.8552 P.3       1 ATP         1.6157
     10 O1A         3.4097   -3.3216   -4.0830 O.co2     1 ATP        -0.8629
     11 O2A         1.1233   -2.0206   -4.0799 O.co2     1 ATP        -0.8629
     12 O3A         3.2936   -0.8480   -4.7290 O.3       1 ATP        -0.8191
     13 O5'         2.9216   -1.4836   -2.3516 O.3       1 ATP        -0.5644
     14 C5'         2.2816   -0.2918   -1.9206 C.3       1 ATP         0.2062
     15 C4'         2.7248    0.0226   -0.4980 C.3       1 ATP         0.0971
     16 O4'         2.4697    1.4219   -0.2462 O.3       1 ATP        -0.3662
     17 C3'         1.9404   -0.7419    0.5596 C.3       1 ATP         0.0734
     18 O3'         2.7418   -0.8086    1.7389 O.3       1 ATP        -0.5671
     19 C2'         0.7477    0.1630    0.7858 C.3       1 ATP         0.0745
     20 O2'         0.1373   -0.0577    2.0407 O.3       1 ATP        -0.5794
     21 C1'         1.3733    1.5427    0.6747 C.3       1 ATP         0.3824
     22 N9          0.4520    2.5240    0.1767 N.pl3     1 ATP        -0.4324
     23 C8         -0.2004    2.4829   -0.9804 C.ar      1 ATP         0.2662
     24 N7         -0.9830    3.5431   -1.1568 N.pl3     1 ATP        -0.4772
     25 C5         -0.8095    4.3012   -0.0331 C.ar      1 ATP        -0.1305
     26 C6         -1.4065    5.5904    0.3585 C.ar      1 ATP         0.7186
     27 N6         -2.2501    6.2030   -0.4084 N.2       1 ATP        -0.8115
     28 N1         -0.9585    6.0272    1.5994 N.pl3     1 ATP        -0.8400
     29 C2         -0.0508    5.3009    2.3532 C.ar      1 ATP         0.6671
     30 N3          0.4890    4.1592    2.0257 N.2       1 ATP        -0.5806
     31 C4          0.0637    3.7006    0.7995 C.ar      1 ATP         0.2748
     32 HOG3        5.5613   -0.7856   -7.7041 H         1 ATP         0.4327
     33 HOB2        5.0372   -0.2263   -2.5156 H         1 ATP         0.4701
     34 H5'1        2.5589    0.5217   -2.5976 H         1 ATP         0.0401
     35 H5'2        1.1982   -0.4388   -1.9617 H         1 ATP         0.0401
     36 H4'         3.8044   -0.1397   -0.4040 H         1 ATP         0.1136
     37 H3'         1.6764   -1.7639    0.2728 H         1 ATP         0.0693
     38 HO3'        2.2232   -1.2979    2.3953 H         1 ATP         0.4124
     39 H2'        -0.0011    0.0027    0.0003 H         1 ATP         0.0854
     40 HO2'       -0.1563   -0.9855    2.0596 H         1 ATP         0.4367
     41 H1'         1.7826    1.9024    1.6451 H         1 ATP         0.1343
     42 H8         -0.1116    1.6863   -1.6984 H         1 ATP         0.3302
     43 HN62       -2.5420    7.0730    0.0447 H         1 ATP         0.4160
     44 H2          0.1969    5.7893    3.3086 H         1 ATP         0.0756
     45 H45        -1.3097    6.9080    1.9642 H         1 ATP         0.4587
     46 H46        -1.5735    3.7351   -1.9538 H         1 ATP         0.5254
@<TRIPOS>BOND
     1    1    2 2
     2    1    3 1
     3    1    4 1
     4    1    8 1
     5    4   32 1
     6    5    6 2
     7    5    7 1
     8    5    8 1
     9    5   12 1
    10    7   33 1
    11    9   10 2
    12    9   11 1
    13    9   12 1
    14    9   13 1
    15   13   14 1
    16   14   15 1
    17   14   34 1
    18   14   35 1
    19   15   16 1
    20   15   17 1
    21   15   36 1
    22   16   21 1
    23   17   18 1
    24   17   19 1
    25   17   37 1
    26   18   38 1
    27   19   20 1
    28   19   21 1
    29   19   39 1
    30   20   40 1
    31   21   22 1
    32   21   41 1
    33   22   23 ar
    34   22   31 ar
    35   23   24 ar
    36   23   42 1
    37   24   25 ar
    38   24   46 1
    39   25   26 ar
    40   25   31 ar
    41   26   27 2
    42   26   28 ar
    43   27   43 1
    44   28   29 ar
    45   28   45 1
    46   29   30 ar
    47   29   44 1
    48   30   31 ar
@<TRIPOS>SUBSTRUCTURE
     1 ATP         1 GROUP 0 A     ****
@<TRIPOS>MOLECULE
[[[3,4-dihydroxy-5-(6-imino-7,8-dihydro-1~{H}-purin-8-ylium-9-yl)tetrahydrofuran-2-yl]methoxy-oxido-phosphoryl]oxy-hydroxy-phosphoryl] hydrogen phosphate
   46    48     1     0     0
SMALL
USER_CHARGES

@<TRIPOS>ATOM
      1 PG          4.6376   -7.1668    3.3413 P.3       1 ATP         1.5595
      2 O1G         5.3023   -6.1384    2.4535 O.co2     1 ATP        -0.8438
      3 O2G         4.7651   -8.6451    3.0481 O.co2     1 ATP        -0.8438
      4 O3G         5.1067   -6.9017    4.8827 O.3       1 ATP        -0.7800
      5 PB          1.8666   -6.7920    2.4036 P.3       1 ATP         1.9223
      6 O1B         2.0731   -5.8815    1.2295 O.2       1 ATP        -0.8953
      7 O2B         1.6881   -8.3559    2.0350 O.3       1 ATP        -0.8165
      8 O3B         3.0584   -6.7895    3.4957 O.3       1 ATP        -0.8247
      9 PA         -1.0040   -6.4120    2.9662 P.3       1 ATP         1.6157
     10 O1A        -1.7671   -5.9142    4.1744 O.co2     1 ATP        -0.8629
     11 O2A        -1.3789   -7.7172    2.2985 O.co2     1 ATP        -0.8629
     12 O3A         0.5865   -6.4621    3.3320 O.3       1 ATP        -0.8191
     13 O5'        -0.9724   -5.2440    1.8220 O.3       1 ATP        -0.5644
     14 C5'        -0.7840   -3.8935    2.2172 C.3       1 ATP         0.2062
     15 C4'        -0.0724   -3.1466    1.1027 C.3       1 ATP         0.0971
     16 O4'        -0.8674   -3.1929   -0.0945 O.3       1 ATP        -0.3662
     17 C3'         0.1338   -1.6715    1.4027 C.3       1 ATP         0.0734
     18 O3'         1.2893   -1.4445    2.1808 O.3       1 ATP        -0.5671
     19 C2'         0.2158   -1.0724    0.0128 C.3       1 ATP         0.0745
     20 O2'         1.5141   -1.2448   -0.5513 O.3       1 ATP        -0.5794
     21 C1'        -0.7897   -1.9176   -0.7583 C.3       1 ATP         0.3824
     22 N9         -2.1040   -1.3333   -0.7704 N.pl3     1 ATP        -0.4324
     23 C8         -3.0590   -1.5123    0.1363 C.ar      1 ATP         0.2662
     24 N7         -4.1655   -0.8354   -0.1554 N.pl3     1 ATP        -0.4772
     25 C5         -3.8852   -0.1874   -1.3253 C.ar      1 ATP        -0.1305
     26 C6         -4.7113    0.7160   -2.1458 C.ar      1 ATP         0.7186
     27 N6         -5.9213    1.0209   -1.8021 N.2       1 ATP        -0.8115
     28 N1         -4.0411    1.1673   -3.2764 N.pl3     1 ATP        -0.8400
     29 C2         -2.7403    0.7865   -3.5638 C.ar      1 ATP         0.6671
     30 N3         -1.9921   -0.0108   -2.8519 N.2       1 ATP        -0.5806
     31 C4         -2.6302   -0.4747   -1.7239 C.ar      1 ATP         0.2748
     32 HOG3        4.7580   -7.4914    5.5847 H         1 ATP         0.4327
     33 HOB2        0.9435   -8.6249    1.4557 H         1 ATP         0.4701
     34 H5'1       -1.7618   -3.4448    2.4164 H         1 ATP         0.0401
     35 H5'2       -0.1874   -3.8744    3.1341 H         1 ATP         0.0401
     36 H4'         0.8874   -3.6466    0.8805 H         1 ATP         0.1136
     37 H3'        -0.7376   -1.2333    1.9867 H         1 ATP         0.0693
     38 HO3'        1.3408   -0.4870    2.3219 H         1 ATP         0.4124
     39 H2'        -0.0384   -0.0310    0.0096 H         1 ATP         0.0854
     40 HO2'        2.1463   -0.7958    0.0370 H         1 ATP         0.4367
     41 H1'        -0.4769   -2.1002   -1.8093 H         1 ATP         0.1343
     42 H8         -2.9569   -2.1323    1.0098 H         1 ATP         0.3302
     43 HN62       -6.3169    1.6552   -2.5012 H         1 ATP         0.4160
     44 H2         -2.3612    1.2343   -4.4957 H         1 ATP         0.0756
     45 H45        -4.5223    1.7976   -3.9117 H         1 ATP         0.4587
     46 H46        -5.0218   -0.8132    0.3804 H         1 ATP         0.5254
@<TRIPOS>BOND
     1    1    2 2
     2    1    3 1
     3    1    4 1
     4    1    8 1
     5    4   32 1
     6    5    6 2
     7    5    7 1
     8    5    8 1
     9    5   12 1
    10    7   33 1
    11    9   10 2
    12    9   11 1
    13    9   12 1
    14    9   13 1
    15   13   14 1
    16   14   15 1
    17   14   34 1
    18   14   35 1
    19   15   16 1
    20   15   17 1
    21   15   36 1
    22   16   21 1
    23   17   18 1
    24   17   19 1
    25   17   37 1
    26   18   38 1
    27   19   20 1
    28   19   21 1
    29   19   39 1
    30   20   40 1
    31   21   22 1
    32   21   41 1
    33   22   23 ar
    34   22   31 ar
    35   23   24 ar
    36   23   42 1
    37   24   25 ar
    38   24   46 1
    39   25   26 ar
    40   25   31 ar
    41   26   27 2
    42   26   28 ar
    43   27   43 1
    44   28   29 ar
    45   28   45 1
    46   29   30 ar
    47   29   44 1
    48   30   31 ar
@<TRIPOS>SUBSTRUCTURE
     1 ATP         1 GROUP 0 A     ****
@<TRIPOS>MOLECULE
[[[3,4-dihydroxy-5-(6-imino-7,8-dihydro-1~{H}-purin-8-ylium-9-yl)tetrahydrofuran-2-yl]methoxy-oxido-phosphoryl]oxy-hydroxy-phosphoryl] hydrogen phosphate
   46    48     1     0     0
SMALL
USER_CHARGES

@<TRIPOS>ATOM
      1 PG          5.4259   -2.8395   -3.5565 P.3       1 ATP         1.5595
      2 O1G         5.1897   -4.1674   -4.2411 O.co2     1 ATP        -0.8438
      3 O2G         5.6417   -2.7636   -2.0615 O.co2     1 ATP        -0.8438
      4 O3G         6.6711   -2.0880   -4.2988 O.3       1 ATP        -0.7800
      5 PB          3.6864   -1.3707   -5.4313 P.3       1 ATP         1.9223
      6 O1B         4.6998   -0.7164   -6.3231 O.2       1 ATP        -0.8953
      7 O2B         3.0297   -2.7259   -6.0192 O.3       1 ATP        -0.8165
      8 O3B         4.2319   -1.8101   -3.9745 O.3       1 ATP        -0.8247
      9 PA          2.3334    0.9635   -4.2388 P.3       1 ATP         1.6157
     10 O1A         0.8795    1.3118   -4.0046 O.co2     1 ATP        -0.8629
     11 O2A         3.2616    1.9407   -4.9268 O.co2     1 ATP        -0.8629
     12 O3A         2.4122   -0.4622   -5.0308 O.3       1 ATP        -0.8191
     13 O5'         3.0213    0.5153   -2.8245 O.3       1 ATP        -0.5644
     14 C5'         2.2816   -0.2918   -1.9206 C.3       1 ATP         0.2062
     15 C4'         2.7248    0.0226   -0.4980 C.3       1 ATP         0.0971
     16 O4'         2.4697    1.4219   -0.2462 O.3       1 ATP        -0.3662
     17 C3'         1.9404   -0.7419    0.5596 C.3       1 ATP         0.0734
     18 O3'         2.7418   -0.8086    1.7389 O.3       1 ATP        -0.5671
     19 C2'         0.7477    0.1630    0.7858 C.3       1 ATP         0.0745
     20 O2'         0.1373   -0.0577    2.0407 O.3       1 ATP        -0.5794
     21 C1'         1.3733    1.5427    0.6747 C.3       1 ATP         0.3824
     22 N9          0.4520    2.5240    0.1767 N.pl3     1 ATP        -0.4324
     23 C8          0.5691    3.2215   -0.9485 C.ar      1 ATP         0.2662
     24 N7         -0.4499    4.0551   -1.1342 N.pl3     1 ATP        -0.4772
     25 C5         -1.2618    3.8674   -0.0512 C.ar      1 ATP        -0.1305
     26 C6         -2.5420    4.5007    0.3120 C.ar      1 ATP         0.7186
     27 N6         -3.0874    5.3993   -0.4432 N.2       1 ATP        -0.8115
     28 N1         -3.0494    4.0205    1.5133 N.pl3     1 ATP        -0.8400
     29 C2         -2.3933    3.0527    2.2567 C.ar      1 ATP         0.6671
     30 N3         -1.2611    2.4796    1.9536 N.2       1 ATP        -0.5806
     31 C4         -0.7334    2.9358    0.7669 C.ar      1 ATP         0.2748
     32 HOG3        6.9489   -1.2074   -3.9679 H         1 ATP         0.4327
     33 HOB2        2.5361   -2.6854   -6.8660 H         1 ATP         0.4701
     34 H5'1        1.2163   -0.0770   -2.0471 H         1 ATP         0.0401
     35 H5'2        2.4655   -1.3443   -2.1563 H         1 ATP         0.0401
     36 H4'         3.8044   -0.1397   -0.4040 H         1 ATP         0.1136
     37 H3'         1.6764   -1.7639    0.2728 H         1 ATP         0.0693
     38 HO3'        3.5554   -1.2733    1.4914 H         1 ATP         0.4124
     39 H2'        -0.0011    0.0027    0.0003 H         1 ATP         0.0854
     40 HO2'       -0.1563   -0.9855    2.0596 H         1 ATP         0.4367
     41 H1'         1.7826    1.9024    1.6451 H         1 ATP         0.1343
     42 H8          1.3912    3.1285   -1.6365 H         1 ATP         0.3302
     43 HN62       -3.9637    5.7084   -0.0142 H         1 ATP         0.4160
     44 H2         -2.9317    2.7866    3.1796 H         1 ATP         0.0756
     45 H45        -3.9307    4.3923    1.8559 H         1 ATP         0.4587
     46 H46        -0.5835    4.6857   -1.9122 H         1 ATP         0.5254
@<TRIPOS>BOND
     1    1    2 2
     2    1    3 1
     3    1    4 1
     4    1    8 1
     5    4   32 1
     6    5    6 2
     7    5    7 1
     8    5    8 1
     9    5   12 1
    10    7   33 1
    11    9   10 2
    12    9   11 1
    13    9   12 1
    14    9   13 1
    15   13   14 1
    16   14   15 1
    17   14   34 1
    18   14   35 1
    19   15   16 1
    20   15   17 1
    21   15   36 1
    22   16   21 1
    23   17   18 1
    24   17   19 1
    25   17   37 1
    26   18   38 1
    27   19   20 1
    28   19   21 1
    29   19   39 1
    30   20   40 1
    31   21   22 1
    32   21   41 1
    33   22   23 ar
    34   22   31 ar
    35   23   24 ar
    36   23   42 1
    37   24   25 ar
    38   24   46 1
    39   25   26 ar
    40   25   31 ar
    41   26   27 2
    42   26   28 ar
    43   27   43 1
    44   28   29 ar
    45   28   45 1
    46   29   30 ar
    47   29   44 1
    48   30   31 ar
@<TRIPOS>SUBSTRUCTURE
     1 ATP         1 GROUP 0 A     ****
@<TRIPOS>MOLECULE
[[[3,4-dihydroxy-5-(6-imino-7,8-dihydro-1~{H}-purin-8-ylium-9-yl)tetrahydrofuran-2-yl]methoxy-oxido-phosphoryl]oxy-hydroxy-phosphoryl] hydrogen phosphate
   46    48     1     0     0
SMALL
USER_CHARGES

@<TRIPOS>ATOM
      1 PG         -5.6955   -7.4423    0.1375 P.3       1 ATP         1.5595
      2 O1G        -5.7479   -8.9501    0.2451 O.co2     1 ATP        -0.8438
      3 O2G        -5.4691   -6.7660   -1.1962 O.co2     1 ATP        -0.8438
      4 O3G        -7.0520   -6.8276    0.8069 O.3       1 ATP        -0.7800
      5 PB         -4.2511   -5.3564    1.6410 P.3       1 ATP         1.9223
      6 O1B        -3.7604   -4.4774    0.5289 O.2       1 ATP        -0.8953
      7 O2B        -5.5920   -4.8401    2.3819 O.3       1 ATP        -0.8165
      8 O3B        -4.6097   -6.8735    1.2134 O.3       1 ATP        -0.8247
      9 PA         -1.7207   -6.2768    2.8457 P.3       1 ATP         1.6157
     10 O1A        -1.8041   -7.6468    2.2084 O.co2     1 ATP        -0.8629
     11 O2A        -1.1159   -6.0993    4.2214 O.co2     1 ATP        -0.8629
     12 O3A        -3.2097   -5.6068    2.8503 O.3       1 ATP        -0.8191
     13 O5'        -0.9724   -5.2440    1.8220 O.3       1 ATP        -0.5644
     14 C5'        -0.7840   -3.8935    2.2172 C.3       1 ATP         0.2062
     15 C4'        -0.0724   -3.1466    1.1027 C.3       1 ATP         0.0971
     16 O4'        -0.8674   -3.1929   -0.0945 O.3       1 ATP        -0.3662
     17 C3'         0.1338   -1.6715    1.4027 C.3       1 ATP         0.0734
     18 O3'         1.2893   -1.4445    2.1808 O.3       1 ATP        -0.5671
     19 C2'         0.2158   -1.0724    0.0128 C.3       1 ATP         0.0745
     20 O2'         1.5141   -1.2448   -0.5513 O.3       1 ATP        -0.5794
     21 C1'        -0.7897   -1.9176   -0.7583 C.3       1 ATP         0.3824
     22 N9         -2.1040   -1.3333   -0.7704 N.pl3     1 ATP        -0.4324
     23 C8         -3.0590   -1.5123    0.1363 C.ar      1 ATP         0.2662
     24 N7         -4.1655   -0.8354   -0.1554 N.pl3     1 ATP        -0.4772
     25 C5         -3.8852   -0.1874   -1.3253 C.ar      1 ATP        -0.1305
     26 C6         -4.7113    0.7160   -2.1458 C.ar      1 ATP         0.7186
     27 N6         -5.9213    1.0209   -1.8021 N.2       1 ATP        -0.8115
     28 N1         -4.0411    1.1673   -3.2764 N.pl3     1 ATP        -0.8400
     29 C2         -2.7403    0.7865   -3.5638 C.ar      1 ATP         0.6671
     30 N3         -1.9921   -0.0108   -2.8519 N.2       1 ATP        -0.5806
     31 C4         -2.6302   -0.4747   -1.7239 C.ar      1 ATP         0.2748
     32 HOG3       -7.1683   -5.8536    0.8151 H         1 ATP         0.4327
     33 HOB2       -5.5823   -3.9649    2.8248 H         1 ATP         0.4701
     34 H5'1       -1.7618   -3.4448    2.4164 H         1 ATP         0.0401
     35 H5'2       -0.1874   -3.8744    3.1341 H         1 ATP         0.0401
     36 H4'         0.8874   -3.6466    0.8805 H         1 ATP         0.1136
     37 H3'        -0.7376   -1.2333    1.9867 H         1 ATP         0.0693
     38 HO3'        1.1626   -1.9325    3.0084 H         1 ATP         0.4124
     39 H2'        -0.0384   -0.0310    0.0096 H         1 ATP         0.0854
     40 HO2'        1.4998   -0.8412   -1.4369 H         1 ATP         0.4367
     41 H1'        -0.4769   -2.1002   -1.8093 H         1 ATP         0.1343
     42 H8         -2.9569   -2.1323    1.0098 H         1 ATP         0.3302
     43 HN62       -6.3169    1.6552   -2.5012 H         1 ATP         0.4160
     44 H2         -2.3612    1.2343   -4.4957 H         1 ATP         0.0756
     45 H45        -4.5223    1.7976   -3.9117 H         1 ATP         0.4587
     46 H46        -5.0218   -0.8132    0.3804 H         1 ATP         0.5254
@<TRIPOS>BOND
     1    1    2 2
     2    1    3 1
     3    1    4 1
     4    1    8 1
     5    4   32 1
     6    5    6 2
     7    5    7 1
     8    5    8 1
     9    5   12 1
    10    7   33 1
    11    9   10 2
    12    9   11 1
    13    9   12 1
    14    9   13 1
    15   13   14 1
    16   14   15 1
    17   14   34 1
    18   14   35 1
    19   15   16 1
    20   15   17 1
    21   15   36 1
    22   16   21 1
    23   17   18 1
    24   17   19 1
    25   17   37 1
    26   18   38 1
    27   19   20 1
    28   19   21 1
    29   19   39 1
    30   20   40 1
    31   21   22 1
    32   21   41 1
    33   22   23 ar
    34   22   31 ar
    35   23   24 ar
    36   23   42 1
    37   24   25 ar
    38   24   46 1
    39   25   26 ar
    40   25   31 ar
    41   26   27 2
    42   26   28 ar
    43   27   43 1
    44   28   29 ar
    45   28   45 1
    46   29   30 ar
    47   29   44 1
    48   30   31 ar
@<TRIPOS>SUBSTRUCTURE
     1 ATP         1 GROUP 0 A     ****
@<TRIPOS>MOLECULE
[[[3,4-dihydroxy-5-(6-imino-7,8-dihydro-1~{H}-purin-8-ylium-9-yl)tetrahydrofuran-2-yl]methoxy-oxido-phosphoryl]oxy-hydroxy-phosphoryl] hydrogen phosphate
   46    48     1     0     0
SMALL
USER_CHARGES

@<TRIPOS>ATOM
      1 PG         -1.3722    0.1890   -7.1823 P.3       1 ATP         1.5595
      2 O1G        -2.2994    1.2747   -6.6828 O.co2     1 ATP        -0.8438
      3 O2G        -1.9106   -1.1616   -7.5988 O.co2     1 ATP        -0.8438
      4 O3G        -0.4811    0.7929   -8.4101 O.3       1 ATP        -0.7800
      5 PB          1.1583   -0.9348   -6.1668 P.3       1 ATP         1.9223
      6 O1B         0.9236   -2.4048   -6.3518 O.2       1 ATP        -0.8953
      7 O2B         2.0371   -0.2298   -7.3262 O.3       1 ATP        -0.8165
      8 O3B        -0.1774   -0.0274   -6.0934 O.3       1 ATP        -0.8247
      9 PA          2.3334    0.9635   -4.2388 P.3       1 ATP         1.6157
     10 O1A         1.0794    1.7628   -3.9589 O.co2     1 ATP        -0.8629
     11 O2A         3.4182    1.5161   -5.1375 O.co2     1 ATP        -0.8629
     12 O3A         1.9049   -0.5092   -4.7989 O.3       1 ATP        -0.8191
     13 O5'         3.0213    0.5153   -2.8245 O.3       1 ATP        -0.5644
     14 C5'         2.2816   -0.2918   -1.9206 C.3       1 ATP         0.2062
     15 C4'         2.7248    0.0226   -0.4980 C.3       1 ATP         0.0971
     16 O4'         2.4697    1.4219   -0.2462 O.3       1 ATP        -0.3662
     17 C3'         1.9404   -0.7419    0.5596 C.3       1 ATP         0.0734
     18 O3'         2.7418   -0.8086    1.7389 O.3       1 ATP        -0.5671
     19 C2'         0.7477    0.1630    0.7858 C.3       1 ATP         0.0745
     20 O2'         0.1373   -0.0577    2.0407 O.3       1 ATP        -0.5794
     21 C1'         1.3733    1.5427    0.6747 C.3       1 ATP         0.3824
     22 N9          0.4520    2.5240    0.1767 N.pl3     1 ATP        -0.4324
     23 C8          0.5691    3.2215   -0.9485 C.ar      1 ATP         0.2662
     24 N7         -0.4499    4.0551   -1.1342 N.pl3     1 ATP        -0.4772
     25 C5         -1.2618    3.8674   -0.0512 C.ar      1 ATP        -0.1305
     26 C6         -2.5420    4.5007    0.3120 C.ar      1 ATP         0.7186
     27 N6         -3.0874    5.3993   -0.4432 N.2       1 ATP        -0.8115
     28 N1         -3.0494    4.0205    1.5133 N.pl3     1 ATP        -0.8400
     29 C2         -2.3933    3.0527    2.2567 C.ar      1 ATP         0.6671
     30 N3         -1.2611    2.4796    1.9536 N.2       1 ATP        -0.5806
     31 C4         -0.7334    2.9358    0.7669 C.ar      1 ATP         0.2748
     32 HOG3        0.1737    0.2057   -8.8444 H         1 ATP         0.4327
     33 HOB2        2.9513   -0.5468   -7.4877 H         1 ATP         0.4701
     34 H5'1        1.2163   -0.0770   -2.0471 H         1 ATP         0.0401
     35 H5'2        2.4655   -1.3443   -2.1563 H         1 ATP         0.0401
     36 H4'         3.8044   -0.1397   -0.4040 H         1 ATP         0.1136
     37 H3'         1.6764   -1.7639    0.2728 H         1 ATP         0.0693
     38 HO3'        3.5554   -1.2733    1.4914 H         1 ATP         0.4124
     39 H2'        -0.0011    0.0027    0.0003 H         1 ATP         0.0854
     40 HO2'       -0.1563   -0.9855    2.0596 H         1 ATP         0.4367
     41 H1'         1.7826    1.9024    1.6451 H         1 ATP         0.1343
     42 H8          1.3912    3.1285   -1.6365 H         1 ATP         0.3302
     43 HN62       -3.9637    5.7084   -0.0142 H         1 ATP         0.4160
     44 H2         -2.9317    2.7866    3.1796 H         1 ATP         0.0756
     45 H45        -3.9307    4.3923    1.8559 H         1 ATP         0.4587
     46 H46        -0.5835    4.6857   -1.9122 H         1 ATP         0.5254
@<TRIPOS>BOND
     1    1    2 2
     2    1    3 1
     3    1    4 1
     4    1    8 1
     5    4   32 1
     6    5    6 2
     7    5    7 1
     8    5    8 1
     9    5   12 1
    10    7   33 1
    11    9   10 2
    12    9   11 1
    13    9   12 1
    14    9   13 1
    15   13   14 1
    16   14   15 1
    17   14   34 1
    18   14   35 1
    19   15   16 1
    20   15   17 1
    21   15   36 1
    22   16   21 1
    23   17   18 1
    24   17   19 1
    25   17   37 1
    26   18   38 1
    27   19   20 1
    28   19   21 1
    29   19   39 1
    30   20   40 1
    31   21   22 1
    32   21   41 1
    33   22   23 ar
    34   22   31 ar
    35   23   24 ar
    36   23   42 1
    37   24   25 ar
    38   24   46 1
    39   25   26 ar
    40   25   31 ar
    41   26   27 2
    42   26   28 ar
    43   27   43 1
    44   28   29 ar
    45   28   45 1
    46   29   30 ar
    47   29   44 1
    48   30   31 ar
@<TRIPOS>SUBSTRUCTURE
     1 ATP         1 GROUP 0 A     ****
@<TRIPOS>MOLECULE
[[[3,4-dihydroxy-5-(6-imino-7,8-dihydro-1~{H}-purin-8-ylium-9-yl)tetrahydrofuran-2-yl]methoxy-oxido-phosphoryl]oxy-hydroxy-phosphoryl] hydrogen phosphate
   46    48     1     0     0
SMALL
USER_CHARGES

@<TRIPOS>ATOM
      1 PG         -0.4084   -5.6400   -3.6824 P.3       1 ATP         1.5595
      2 O1G        -0.9295   -5.5145   -2.2680 O.co2     1 ATP        -0.8438
      3 O2G         0.3975   -6.8464   -4.1094 O.co2     1 ATP        -0.8438
      4 O3G        -1.6616   -5.4622   -4.7140 O.3       1 ATP        -0.7800
      5 PB         -0.0162   -2.7318   -3.9770 P.3       1 ATP         1.9223
      6 O1B        -1.2108   -2.3551   -4.8025 O.2       1 ATP        -0.8953
      7 O2B        -0.1675   -2.4633   -2.3900 O.3       1 ATP        -0.8165
      8 O3B         0.4182   -4.2864   -4.0627 O.3       1 ATP        -0.8247
      9 PA          2.8603   -2.1314   -3.7189 P.3       1 ATP         1.6157
     10 O1A         3.7693   -1.1113   -4.3692 O.co2     1 ATP        -0.8629
     11 O2A         3.2353   -3.5972   -3.6945 O.co2     1 ATP        -0.8629
     12 O3A         1.3676   -1.9951   -4.3666 O.3       1 ATP        -0.8191
     13 O5'         2.5245   -1.6648   -2.1878 O.3       1 ATP        -0.5644
     14 C5'         2.2816   -0.2918   -1.9206 C.3       1 ATP         0.2062
     15 C4'         2.7248    0.0226   -0.4980 C.3       1 ATP         0.0971
     16 O4'         2.4697    1.4219   -0.2462 O.3       1 ATP        -0.3662
     17 C3'         1.9404   -0.7419    0.5596 C.3       1 ATP         0.0734
     18 O3'         2.7418   -0.8086    1.7389 O.3       1 ATP        -0.5671
     19 C2'         0.7477    0.1630    0.7858 C.3       1 ATP         0.0745
     20 O2'         0.1373   -0.0577    2.0407 O.3       1 ATP        -0.5794
     21 C1'         1.3733    1.5427    0.6747 C.3       1 ATP         0.3824
     22 N9          0.4520    2.5240    0.1767 N.pl3     1 ATP        -0.4324
     23 C8          0.2216    2.8192   -1.0985 C.ar      1 ATP         0.2662
     24 N7         -0.6906    3.7763   -1.2384 N.pl3     1 ATP        -0.4772
     25 C5         -1.0575    4.1037    0.0366 C.ar      1 ATP        -0.1305
     26 C6         -2.0291    5.0943    0.5330 C.ar      1 ATP         0.7186
     27 N6         -2.7093    5.8371   -0.2800 N.2       1 ATP        -0.8115
     28 N1         -2.1051    5.1136    1.9204 N.pl3     1 ATP        -0.8400
     29 C2         -1.3354    4.2774    2.7129 C.ar      1 ATP         0.6671
     30 N3         -0.4707    3.3945    2.2944 N.2       1 ATP        -0.5806
     31 C4         -0.3734    3.3525    0.9220 C.ar      1 ATP         0.2748
     32 HOG3       -1.4848   -5.5182   -5.6772 H         1 ATP         0.4327
     33 HOB2       -0.3306   -1.5480   -2.0771 H         1 ATP         0.4701
     34 H5'1        2.8432    0.3119   -2.6398 H         1 ATP         0.0401
     35 H5'2        1.2128   -0.0927   -2.0428 H         1 ATP         0.0401
     36 H4'         3.8044   -0.1397   -0.4040 H         1 ATP         0.1136
     37 H3'         1.6764   -1.7639    0.2728 H         1 ATP         0.0693
     38 HO3'        2.2232   -1.2979    2.3953 H         1 ATP         0.4124
     39 H2'        -0.0011    0.0027    0.0003 H         1 ATP         0.0854
     40 HO2'       -0.1563   -0.9855    2.0596 H         1 ATP         0.4367
     41 H1'         1.7826    1.9024    1.6451 H         1 ATP         0.1343
     42 H8          0.7125    2.3429   -1.9292 H         1 ATP         0.3302
     43 HN62       -3.3217    6.4517    0.2629 H         1 ATP         0.4160
     44 H2         -1.5188    4.4223    3.7890 H         1 ATP         0.0756
     45 H45        -2.7470    5.7627    2.3665 H         1 ATP         0.4587
     46 H46        -1.0305    4.1680   -2.1054 H         1 ATP         0.5254
@<TRIPOS>BOND
     1    1    2 2
     2    1    3 1
     3    1    4 1
     4    1    8 1
     5    4   32 1
     6    5    6 2
     7    5    7 1
     8    5    8 1
     9    5   12 1
    10    7   33 1
    11    9   10 2
    12    9   11 1
    13    9   12 1
    14    9   13 1
    15   13   14 1
    16   14   15 1
    17   14   34 1
    18   14   35 1
    19   15   16 1
    20   15   17 1
    21   15   36 1
    22   16   21 1
    23   17   18 1
    24   17   19 1
    25   17   37 1
    26   18   38 1
    27   19   20 1
    28   19   21 1
    29   19   39 1
    30   20   40 1
    31   21   22 1
    32   21   41 1
    33   22   23 ar
    34   22   31 ar
    35   23   24 ar
    36   23   42 1
    37   24   25 ar
    38   24   46 1
    39   25   26 ar
    40   25   31 ar
    41   26   27 2
    42   26   28 ar
    43   27   43 1
    44   28   29 ar
    45   28   45 1
    46   29   30 ar
    47   29   44 1
    48   30   31 ar
@<TRIPOS>SUBSTRUCTURE
     1 ATP         1 GROUP 0 A     ****
@<TRIPOS>MOLECULE
[[[3,4-dihydroxy-5-(6-imino-7,8-dihydro-1~{H}-purin-8-ylium-9-yl)tetrahydrofuran-2-yl]methoxy-oxido-phosphoryl]oxy-hydroxy-phosphoryl] hydrogen phosphate
   46    48     1     0     0
SMALL
USER_CHARGES

@<TRIPOS>ATOM
      1 PG          7.8583   -3.8480   -4.4650 P.3       1 ATP         1.5595
      2 O1G         7.4807   -5.3031   -4.6316 O.co2     1 ATP        -0.8438
      3 O2G         9.1645   -3.4541   -3.8123 O.co2     1 ATP        -0.8438
      4 O3G         7.7666   -3.1186   -5.9229 O.3       1 ATP        -0.7800
      5 PB          6.4221   -1.4926   -3.4221 P.3       1 ATP         1.9223
      6 O1B         7.4807   -0.8538   -2.5726 O.2       1 ATP        -0.8953
      7 O2B         6.2398   -0.8450   -4.8921 O.3       1 ATP        -0.8165
      8 O3B         6.6351   -3.0669   -3.7208 O.3       1 ATP        -0.8247
      9 PA          3.5300   -2.0728   -3.4114 P.3       1 ATP         1.6157
     10 O1A         3.6302   -3.5801   -3.5007 O.co2     1 ATP        -0.8629
     11 O2A         3.1559   -1.2493   -4.6246 O.co2     1 ATP        -0.8629
     12 O3A         4.9288   -1.4871   -2.8061 O.3       1 ATP        -0.8191
     13 O5'         2.5245   -1.6648   -2.1878 O.3       1 ATP        -0.5644
     14 C5'         2.2816   -0.2918   -1.9206 C.3       1 ATP         0.2062
     15 C4'         2.7248    0.0226   -0.4980 C.3       1 ATP         0.0971
     16 O4'         2.4697    1.4219   -0.2462 O.3       1 ATP        -0.3662
     17 C3'         1.9404   -0.7419    0.5596 C.3       1 ATP         0.0734
     18 O3'         2.7418   -0.8086    1.7389 O.3       1 ATP        -0.5671
     19 C2'         0.7477    0.1630    0.7858 C.3       1 ATP         0.0745
     20 O2'         0.1373   -0.0577    2.0407 O.3       1 ATP        -0.5794
     21 C1'         1.3733    1.5427    0.6747 C.3       1 ATP         0.3824
     22 N9          0.4520    2.5240    0.1767 N.pl3     1 ATP        -0.4324
     23 C8          0.2216    2.8192   -1.0985 C.ar      1 ATP         0.2662
     24 N7         -0.6906    3.7763   -1.2384 N.pl3     1 ATP        -0.4772
     25 C5         -1.0575    4.1037    0.0366 C.ar      1 ATP        -0.1305
     26 C6         -2.0291    5.0943    0.5330 C.ar      1 ATP         0.7186
     27 N6         -2.7093    5.8371   -0.2800 N.2       1 ATP        -0.8115
     28 N1         -2.1051    5.1136    1.9204 N.pl3     1 ATP        -0.8400
     29 C2         -1.3354    4.2774    2.7129 C.ar      1 ATP         0.6671
     30 N3         -0.4707    3.3945    2.2944 N.2       1 ATP        -0.5806
     31 C4         -0.3734    3.3525    0.9220 C.ar      1 ATP         0.2748
     32 HOG3        7.9837   -2.1638   -5.9816 H         1 ATP         0.4327
     33 HOB2        5.9940    0.1017   -4.9664 H         1 ATP         0.4701
     34 H5'1        2.8432    0.3119   -2.6398 H         1 ATP         0.0401
     35 H5'2        1.2128   -0.0927   -2.0428 H         1 ATP         0.0401
     36 H4'         3.8044   -0.1397   -0.4040 H         1 ATP         0.1136
     37 H3'         1.6764   -1.7639    0.2728 H         1 ATP         0.0693
     38 HO3'        3.5554   -1.2733    1.4914 H         1 ATP         0.4124
     39 H2'        -0.0011    0.0027    0.0003 H         1 ATP         0.0854
     40 HO2'        0.8082    0.1199    2.7232 H         1 ATP         0.4367
     41 H1'         1.7826    1.9024    1.6451 H         1 ATP         0.1343
     42 H8          0.7125    2.3429   -1.9292 H         1 ATP         0.3302
     43 HN62       -3.3217    6.4517    0.2629 H         1 ATP         0.4160
     44 H2         -1.5188    4.4223    3.7890 H         1 ATP         0.0756
     45 H45        -2.7470    5.7627    2.3665 H         1 ATP         0.4587
     46 H46        -1.0305    4.1680   -2.1054 H         1 ATP         0.5254
@<TRIPOS>BOND
     1    1    2 2
     2    1    3 1
     3    1    4 1
     4    1    8 1
     5    4   32 1
     6    5    6 2
     7    5    7 1
     8    5    8 1
     9    5   12 1
    10    7   33 1
    11    9   10 2
    12    9   11 1
    13    9   12 1
    14    9   13 1
    15   13   14 1
    16   14   15 1
    17   14   34 1
    18   14   35 1
    19   15   16 1
    20   15   17 1
    21   15   36 1
    22   16   21 1
    23   17   18 1
    24   17   19 1
    25   17   37 1
    26   18   38 1
    27   19   20 1
    28   19   21 1
    29   19   39 1
    30   20   40 1
    31   21   22 1
    32   21   41 1
    33   22   23 ar
    34   22   31 ar
    35   23   24 ar
    36   23   42 1
    37   24   25 ar
    38   24   46 1
    39   25   26 ar
    40   25   31 ar
    41   26   27 2
    42   26   28 ar
    43   27   43 1
    44   28   29 ar
    45   28   45 1
    46   29   30 ar
    47   29   44 1
    48   30   31 ar
@<TRIPOS>SUBSTRUCTURE
     1 ATP         1 GROUP 0 A     ****
@<TRIPOS>MOLECULE
[[[3,4-dihydroxy-5-(6-imino-7,8-dihydro-1~{H}-purin-8-ylium-9-yl)tetrahydrofuran-2-yl]methoxy-oxido-phosphoryl]oxy-hydroxy-phosphoryl] hydrogen phosphate
   46    48     1     0     0
SMALL
USER_CHARGES

@<TRIPOS>ATOM
      1 PG          0.3502   -2.2783   -7.7164 P.3       1 ATP         1.5595
      2 O1G         1.3387   -2.3957   -8.8551 O.co2     1 ATP        -0.8438
      3 O2G        -0.8481   -1.3612   -7.8192 O.co2     1 ATP        -0.8438
      4 O3G        -0.1745   -3.7753   -7.3292 O.3       1 ATP        -0.7800
      5 PB          2.4178   -2.6895   -5.6540 P.3       1 ATP         1.9223
      6 O1B         2.1781   -4.1216   -5.2772 O.2       1 ATP        -0.8953
      7 O2B         3.6292   -2.4488   -6.6971 O.3       1 ATP        -0.8165
      8 O3B         1.1633   -1.9390   -6.3439 O.3       1 ATP        -0.8247
      9 PA          3.0673   -0.0858   -4.4292 P.3       1 ATP         1.6157
     10 O1A         1.8255    0.6567   -4.8725 O.co2     1 ATP        -0.8629
     11 O2A         4.3921    0.1382   -5.1252 O.co2     1 ATP        -0.8629
     12 O3A         2.7518   -1.6878   -4.4314 O.3       1 ATP        -0.8191
     13 O5'         3.2903    0.1346   -2.8241 O.3       1 ATP        -0.5644
     14 C5'         2.2816   -0.2918   -1.9206 C.3       1 ATP         0.2062
     15 C4'         2.7248    0.0226   -0.4980 C.3       1 ATP         0.0971
     16 O4'         2.4697    1.4219   -0.2462 O.3       1 ATP        -0.3662
     17 C3'         1.9404   -0.7419    0.5596 C.3       1 ATP         0.0734
     18 O3'         2.7418   -0.8086    1.7389 O.3       1 ATP        -0.5671
     19 C2'         0.7477    0.1630    0.7858 C.3       1 ATP         0.0745
     20 O2'         0.1373   -0.0577    2.0407 O.3       1 ATP        -0.5794
     21 C1'         1.3733    1.5427    0.6747 C.3       1 ATP         0.3824
     22 N9          0.4520    2.5240    0.1767 N.pl3     1 ATP        -0.4324
     23 C8          0.5691    3.2215   -0.9485 C.ar      1 ATP         0.2662
     24 N7         -0.4499    4.0551   -1.1342 N.pl3     1 ATP        -0.4772
     25 C5         -1.2618    3.8674   -0.0512 C.ar      1 ATP        -0.1305
     26 C6         -2.5420    4.5007    0.3120 C.ar      1 ATP         0.7186
     27 N6         -3.0874    5.3993   -0.4432 N.2       1 ATP        -0.8115
     28 N1         -3.0494    4.0205    1.5133 N.pl3     1 ATP        -0.8400
     29 C2         -2.3933    3.0527    2.2567 C.ar      1 ATP         0.6671
     30 N3         -1.2611    2.4796    1.9536 N.2       1 ATP        -0.5806
     31 C4         -0.7334    2.9358    0.7669 C.ar      1 ATP         0.2748
     32 HOG3       -0.8263   -3.8678   -6.6020 H         1 ATP         0.4327
     33 HOB2        3.5845   -2.8706   -7.5817 H         1 ATP         0.4701
     34 H5'1        1.3514    0.2330   -2.1577 H         1 ATP         0.0401
     35 H5'2        2.1280   -1.3678   -2.0460 H         1 ATP         0.0401
     36 H4'         3.8044   -0.1397   -0.4040 H         1 ATP         0.1136
     37 H3'         1.6764   -1.7639    0.2728 H         1 ATP         0.0693
     38 HO3'        2.2232   -1.2979    2.3953 H         1 ATP         0.4124
     39 H2'        -0.0011    0.0027    0.0003 H         1 ATP         0.0854
     40 HO2'       -0.1563   -0.9855    2.0596 H         1 ATP         0.4367
     41 H1'         1.7826    1.9024    1.6451 H         1 ATP         0.1343
     42 H8          1.3912    3.1285   -1.6365 H         1 ATP         0.3302
     43 HN62       -3.9637    5.7084   -0.0142 H         1 ATP         0.4160
     44 H2         -2.9317    2.7866    3.1796 H         1 ATP         0.0756
     45 H45        -3.9307    4.3923    1.8559 H         1 ATP         0.4587
     46 H46        -0.5835    4.6857   -1.9122 H         1 ATP         0.5254
@<TRIPOS>BOND
     1    1    2 2
     2    1    3 1
     3    1    4 1
     4    1    8 1
     5    4   32 1
     6    5    6 2
     7    5    7 1
     8    5    8 1
     9    5   12 1
    10    7   33 1
    11    9   10 2
    12    9   11 1
    13    9   12 1
    14    9   13 1
    15   13   14 1
    16   14   15 1
    17   14   34 1
    18   14   35 1
    19   15   16 1
    20   15   17 1
    21   15   36 1
    22   16   21 1
    23   17   18 1
    24   17   19 1
    25   17   37 1
    26   18   38 1
    27   19   20 1
    28   19   21 1
    29   19   39 1
    30   20   40 1
    31   21   22 1
    32   21   41 1
    33   22   23 ar
    34   22   31 ar
    35   23   24 ar
    36   23   42 1
    37   24   25 ar
    38   24   46 1
    39   25   26 ar
    40   25   31 ar
    41   26   27 2
    42   26   28 ar
    43   27   43 1
    44   28   29 ar
    45   28   45 1
    46   29   30 ar
    47   29   44 1
    48   30   31 ar
@<TRIPOS>SUBSTRUCTURE
     1 ATP         1 GROUP 0 A     ****
@<TRIPOS>MOLECULE
[[[3,4-dihydroxy-5-(6-imino-7,8-dihydro-1~{H}-purin-8-ylium-9-yl)tetrahydrofuran-2-yl]methoxy-oxido-phosphoryl]oxy-hydroxy-phosphoryl] hydrogen phosphate
   46    48     1     0     0
SMALL
USER_CHARGES

@<TRIPOS>ATOM
      1 PG         -0.5718   -0.7726   -5.8750 P.3       1 ATP         1.5595
      2 O1G        -0.5413   -0.2646   -7.2993 O.co2     1 ATP        -0.8438
      3 O2G         0.0490    0.0271   -4.7513 O.co2     1 ATP        -0.8438
      4 O3G        -2.1195   -1.1094   -5.4780 O.3       1 ATP        -0.7800
      5 PB          0.0967   -3.3649   -4.6376 P.3       1 ATP         1.9223
      6 O1B        -1.2288   -3.7678   -4.0623 O.2       1 ATP        -0.8953
      7 O2B         0.9724   -4.5754   -5.2550 O.3       1 ATP        -0.8165
      8 O3B         0.0270   -2.2893   -5.8422 O.3       1 ATP        -0.8247
      9 PA          2.6194   -2.0514   -3.8552 P.3       1 ATP         1.6157
     10 O1A         2.5492   -0.8935   -4.8270 O.co2     1 ATP        -0.8629
     11 O2A         3.5431   -3.2220   -4.1125 O.co2     1 ATP        -0.8629
     12 O3A         1.1116   -2.6310   -3.6173 O.3       1 ATP        -0.8191
     13 O5'         2.9216   -1.4836   -2.3516 O.3       1 ATP        -0.5644
     14 C5'         2.2816   -0.2918   -1.9206 C.3       1 ATP         0.2062
     15 C4'         2.7248    0.0226   -0.4980 C.3       1 ATP         0.0971
     16 O4'         2.4697    1.4219   -0.2462 O.3       1 ATP        -0.3662
     17 C3'         1.9404   -0.7419    0.5596 C.3       1 ATP         0.0734
     18 O3'         2.7418   -0.8086    1.7389 O.3       1 ATP        -0.5671
     19 C2'         0.7477    0.1630    0.7858 C.3       1 ATP         0.0745
     20 O2'         0.1373   -0.0577    2.0407 O.3       1 ATP        -0.5794
     21 C1'         1.3733    1.5427    0.6747 C.3       1 ATP         0.3824
     22 N9          0.4520    2.5240    0.1767 N.pl3     1 ATP        -0.4324
     23 C8          0.2216    2.8192   -1.0985 C.ar      1 ATP         0.2662
     24 N7         -0.6906    3.7763   -1.2384 N.pl3     1 ATP        -0.4772
     25 C5         -1.0575    4.1037    0.0366 C.ar      1 ATP        -0.1305
     26 C6         -2.0291    5.0943    0.5330 C.ar      1 ATP         0.7186
     27 N6         -2.7093    5.8371   -0.2800 N.2       1 ATP        -0.8115
     28 N1         -2.1051    5.1136    1.9204 N.pl3     1 ATP        -0.8400
     29 C2         -1.3354    4.2774    2.7129 C.ar      1 ATP         0.6671
     30 N3         -0.4707    3.3945    2.2944 N.2       1 ATP        -0.5806
     31 C4         -0.3734    3.3525    0.9220 C.ar      1 ATP         0.2748
     32 HOG3       -2.3066   -1.4517   -4.5779 H         1 ATP         0.4327
     33 HOB2        1.2394   -5.3151   -4.6686 H         1 ATP         0.4701
     34 H5'1        2.5589    0.5217   -2.5976 H         1 ATP         0.0401
     35 H5'2        1.1982   -0.4388   -1.9617 H         1 ATP         0.0401
     36 H4'         3.8044   -0.1397   -0.4040 H         1 ATP         0.1136
     37 H3'         1.6764   -1.7639    0.2728 H         1 ATP         0.0693
     38 HO3'        2.2232   -1.2979    2.3953 H         1 ATP         0.4124
     39 H2'        -0.0011    0.0027    0.0003 H         1 ATP         0.0854
     40 HO2'       -0.6141    0.5574    2.1082 H         1 ATP         0.4367
     41 H1'         1.7826    1.9024    1.6451 H         1 ATP         0.1343
     42 H8          0.7125    2.3429   -1.9292 H         1 ATP         0.3302
     43 HN62       -3.3217    6.4517    0.2629 H         1 ATP         0.4160
     44 H2         -1.5188    4.4223    3.7890 H         1 ATP         0.0756
     45 H45        -2.7470    5.7627    2.3665 H         1 ATP         0.4587
     46 H46        -1.0305    4.1680   -2.1054 H         1 ATP         0.5254
@<TRIPOS>BOND
     1    1    2 2
     2    1    3 1
     3    1    4 1
     4    1    8 1
     5    4   32 1
     6    5    6 2
     7    5    7 1
     8    5    8 1
     9    5   12 1
    10    7   33 1
    11    9   10 2
    12    9   11 1
    13    9   12 1
    14    9   13 1
    15   13   14 1
    16   14   15 1
    17   14   34 1
    18   14   35 1
    19   15   16 1
    20   15   17 1
    21   15   36 1
    22   16   21 1
    23   17   18 1
    24   17   19 1
    25   17   37 1
    26   18   38 1
    27   19   20 1
    28   19   21 1
    29   19   39 1
    30   20   40 1
    31   21   22 1
    32   21   41 1
    33   22   23 ar
    34   22   31 ar
    35   23   24 ar
    36   23   42 1
    37   24   25 ar
    38   24   46 1
    39   25   26 ar
    40   25   31 ar
    41   26   27 2
    42   26   28 ar
    43   27   43 1
    44   28   29 ar
    45   28   45 1
    46   29   30 ar
    47   29   44 1
    48   30   31 ar
@<TRIPOS>SUBSTRUCTURE
     1 ATP         1 GROUP 0 A     ****
@<TRIPOS>MOLECULE
[[[3,4-dihydroxy-5-(6-imino-7,8-dihydro-1~{H}-purin-8-ylium-9-yl)tetrahydrofuran-2-yl]methoxy-oxido-phosphoryl]oxy-hydroxy-phosphoryl] hydrogen phosphate
   46    48     1     0     0
SMALL
USER_CHARGES

@<TRIPOS>ATOM
      1 PG          4.3629   -1.1534   -8.6397 P.3       1 ATP         1.5595
      2 O1G         5.2297    0.0192   -9.0414 O.co2     1 ATP        -0.8438
      3 O2G         3.2591   -1.6502   -9.5464 O.co2     1 ATP        -0.8438
      4 O3G         5.3340   -2.4122   -8.2674 O.3       1 ATP        -0.7800
      5 PB          2.8856   -1.8264   -6.1775 P.3       1 ATP         1.9223
      6 O1B         1.5806   -2.3083   -6.7387 O.2       1 ATP        -0.8953
      7 O2B         3.9277   -2.9925   -5.7677 O.3       1 ATP        -0.8165
      8 O3B         3.7460   -0.8705   -7.1566 O.3       1 ATP        -0.8247
      9 PA          3.9552   -0.2066   -3.9564 P.3       1 ATP         1.6157
     10 O1A         4.6399    0.8510   -4.7947 O.co2     1 ATP        -0.8629
     11 O2A         4.7577   -1.2974   -3.2811 O.co2     1 ATP        -0.8629
     12 O3A         2.7844   -0.9106   -4.8506 O.3       1 ATP        -0.8191
     13 O5'         3.0213    0.5153   -2.8245 O.3       1 ATP        -0.5644
     14 C5'         2.2816   -0.2918   -1.9206 C.3       1 ATP         0.2062
     15 C4'         2.7248    0.0226   -0.4980 C.3       1 ATP         0.0971
     16 O4'         2.4697    1.4219   -0.2462 O.3       1 ATP        -0.3662
     17 C3'         1.9404   -0.7419    0.5596 C.3       1 ATP         0.0734
     18 O3'         2.7418   -0.8086    1.7389 O.3       1 ATP        -0.5671
     19 C2'         0.7477    0.1630    0.7858 C.3       1 ATP         0.0745
     20 O2'         0.1373   -0.0577    2.0407 O.3       1 ATP        -0.5794
     21 C1'         1.3733    1.5427    0.6747 C.3       1 ATP         0.3824
     22 N9          0.4520    2.5240    0.1767 N.pl3     1 ATP        -0.4324
     23 C8         -0.2004    2.4829   -0.9804 C.ar      1 ATP         0.2662
     24 N7         -0.9830    3.5431   -1.1568 N.pl3     1 ATP        -0.4772
     25 C5         -0.8095    4.3012   -0.0331 C.ar      1 ATP        -0.1305
     26 C6         -1.4065    5.5904    0.3585 C.ar      1 ATP         0.7186
     27 N6         -2.2501    6.2030   -0.4084 N.2       1 ATP        -0.8115
     28 N1         -0.9585    6.0272    1.5994 N.pl3     1 ATP        -0.8400
     29 C2         -0.0508    5.3009    2.3532 C.ar      1 ATP         0.6671
     30 N3          0.4890    4.1592    2.0257 N.2       1 ATP        -0.5806
     31 C4          0.0637    3.7006    0.7995 C.ar      1 ATP         0.2748
     32 HOG3        4.9184   -3.2547   -7.9851 H         1 ATP         0.4327
     33 HOB2        3.6624   -3.6489   -5.0888 H         1 ATP         0.4701
     34 H5'1        1.2163   -0.0770   -2.0471 H         1 ATP         0.0401
     35 H5'2        2.4655   -1.3443   -2.1563 H         1 ATP         0.0401
     36 H4'         3.8044   -0.1397   -0.4040 H         1 ATP         0.1136
     37 H3'         1.6764   -1.7639    0.2728 H         1 ATP         0.0693
     38 HO3'        2.2232   -1.2979    2.3953 H         1 ATP         0.4124
     39 H2'        -0.0011    0.0027    0.0003 H         1 ATP         0.0854
     40 HO2'       -0.1563   -0.9855    2.0596 H         1 ATP         0.4367
     41 H1'         1.7826    1.9024    1.6451 H         1 ATP         0.1343
     42 H8         -0.1116    1.6863   -1.6984 H         1 ATP         0.3302
     43 HN62       -2.5420    7.0730    0.0447 H         1 ATP         0.4160
     44 H2          0.1969    5.7893    3.3086 H         1 ATP         0.0756
     45 H45        -1.3097    6.9080    1.9642 H         1 ATP         0.4587
     46 H46        -1.5735    3.7351   -1.9538 H         1 ATP         0.5254
@<TRIPOS>BOND
     1    1    2 2
     2    1    3 1
     3    1    4 1
     4    1    8 1
     5    4   32 1
     6    5    6 2
     7    5    7 1
     8    5    8 1
     9    5   12 1
    10    7   33 1
    11    9   10 2
    12    9   11 1
    13    9   12 1
    14    9   13 1
    15   13   14 1
    16   14   15 1
    17   14   34 1
    18   14   35 1
    19   15   16 1
    20   15   17 1
    21   15   36 1
    22   16   21 1
    23   17   18 1
    24   17   19 1
    25   17   37 1
    26   18   38 1
    27   19   20 1
    28   19   21 1
    29   19   39 1
    30   20   40 1
    31   21   22 1
    32   21   41 1
    33   22   23 ar
    34   22   31 ar
    35   23   24 ar
    36   23   42 1
    37   24   25 ar
    38   24   46 1
    39   25   26 ar
    40   25   31 ar
    41   26   27 2
    42   26   28 ar
    43   27   43 1
    44   28   29 ar
    45   28   45 1
    46   29   30 ar
    47   29   44 1
    48   30   31 ar
@<TRIPOS>SUBSTRUCTURE
     1 ATP         1 GROUP 0 A     ****
@<TRIPOS>MOLECULE
[[[3,4-dihydroxy-5-(6-imino-7,8-dihydro-1~{H}-purin-8-ylium-9-yl)tetrahydrofuran-2-yl]methoxy-oxido-phosphoryl]oxy-hydroxy-phosphoryl] hydrogen phosphate
   46    48     1     0     0
SMALL
USER_CHARGES

@<TRIPOS>ATOM
      1 PG         -0.8524   -1.8972   -6.8475 P.3       1 ATP         1.5595
      2 O1G        -1.0346   -3.2005   -6.1020 O.co2     1 ATP        -0.8438
      3 O2G        -0.2624   -1.8745   -8.2400 O.co2     1 ATP        -0.8438
      4 O3G        -2.2844   -1.1133   -6.8784 O.3       1 ATP        -0.7800
      5 PB          1.5055   -0.9074   -5.3782 P.3       1 ATP         1.9223
      6 O1B         1.8595   -2.1051   -4.5472 O.2       1 ATP        -0.8953
      7 O2B         2.3781   -0.7271   -6.7271 O.3       1 ATP        -0.8165
      8 O3B        -0.0231   -0.8591   -5.9016 O.3       1 ATP        -0.8247
      9 PA          2.9230    1.2546   -3.9578 P.3       1 ATP         1.6157
     10 O1A         2.4619    2.5263   -3.2796 O.co2     1 ATP        -0.8629
     11 O2A         4.0434    1.2827   -4.9744 O.co2     1 ATP        -0.8629
     12 O3A         1.6316    0.5231   -4.6386 O.3       1 ATP        -0.8191
     13 O5'         3.2903    0.1346   -2.8241 O.3       1 ATP        -0.5644
     14 C5'         2.2816   -0.2918   -1.9206 C.3       1 ATP         0.2062
     15 C4'         2.7248    0.0226   -0.4980 C.3       1 ATP         0.0971
     16 O4'         2.4697    1.4219   -0.2462 O.3       1 ATP        -0.3662
     17 C3'         1.9404   -0.7419    0.5596 C.3       1 ATP         0.0734
     18 O3'         2.7418   -0.8086    1.7389 O.3       1 ATP        -0.5671
     19 C2'         0.7477    0.1630    0.7858 C.3       1 ATP         0.0745
     20 O2'         0.1373   -0.0577    2.0407 O.3       1 ATP        -0.5794
     21 C1'         1.3733    1.5427    0.6747 C.3       1 ATP         0.3824
     22 N9          0.4520    2.5240    0.1767 N.pl3     1 ATP        -0.4324
     23 C8         -0.2004    2.4829   -0.9804 C.ar      1 ATP         0.2662
     24 N7         -0.9830    3.5431   -1.1568 N.pl3     1 ATP        -0.4772
     25 C5         -0.8095    4.3012   -0.0331 C.ar      1 ATP        -0.1305
     26 C6         -1.4065    5.5904    0.3585 C.ar      1 ATP         0.7186
     27 N6         -2.2501    6.2030   -0.4084 N.2       1 ATP        -0.8115
     28 N1         -0.9585    6.0272    1.5994 N.pl3     1 ATP        -0.8400
     29 C2         -0.0508    5.3009    2.3532 C.ar      1 ATP         0.6671
     30 N3          0.4890    4.1592    2.0257 N.2       1 ATP        -0.5806
     31 C4          0.0637    3.7006    0.7995 C.ar      1 ATP         0.2748
     32 HOG3       -2.3309   -0.2438   -7.3302 H         1 ATP         0.4327
     33 HOB2        2.3584   -1.4373   -7.4036 H         1 ATP         0.4701
     34 H5'1        1.3514    0.2330   -2.1577 H         1 ATP         0.0401
     35 H5'2        2.1280   -1.3678   -2.0460 H         1 ATP         0.0401
     36 H4'         3.8044   -0.1397   -0.4040 H         1 ATP         0.1136
     37 H3'         1.6764   -1.7639    0.2728 H         1 ATP         0.0693
     38 HO3'        3.5554   -1.2733    1.4914 H         1 ATP         0.4124
     39 H2'        -0.0011    0.0027    0.0003 H         1 ATP         0.0854
     40 HO2'       -0.1563   -0.9855    2.0596 H         1 ATP         0.4367
     41 H1'         1.7826    1.9024    1.6451 H         1 ATP         0.1343
     42 H8         -0.1116    1.6863   -1.6984 H         1 ATP         0.3302
     43 HN62       -2.5420    7.0730    0.0447 H         1 ATP         0.4160
     44 H2          0.1969    5.7893    3.3086 H         1 ATP         0.0756
     45 H45        -1.3097    6.9080    1.9642 H         1 ATP         0.4587
     46 H46        -1.5735    3.7351   -1.9538 H         1 ATP         0.5254
@<TRIPOS>BOND
     1    1    2 2
     2    1    3 1
     3    1    4 1
     4    1    8 1
     5    4   32 1
     6    5    6 2
     7    5    7 1
     8    5    8 1
     9    5   12 1
    10    7   33 1
    11    9   10 2
    12    9   11 1
    13    9   12 1
    14    9   13 1
    15   13   14 1
    16   14   15 1
    17   14   34 1
    18   14   35 1
    19   15   16 1
    20   15   17 1
    21   15   36 1
    22   16   21 1
    23   17   18 1
    24   17   19 1
    25   17   37 1
    26   18   38 1
    27   19   20 1
    28   19   21 1
    29   19   39 1
    30   20   40 1
    31   21   22 1
    32   21   41 1
    33   22   23 ar
    34   22   31 ar
    35   23   24 ar
    36   23   42 1
    37   24   25 ar
    38   24   46 1
    39   25   26 ar
    40   25   31 ar
    41   26   27 2
    42   26   28 ar
    43   27   43 1
    44   28   29 ar
    45   28   45 1
    46   29   30 ar
    47   29   44 1
    48   30   31 ar
@<TRIPOS>SUBSTRUCTURE
     1 ATP         1 GROUP 0 A     ****
@<TRIPOS>MOLECULE
[[[3,4-dihydroxy-5-(6-imino-7,8-dihydro-1~{H}-purin-8-ylium-9-yl)tetrahydrofuran-2-yl]methoxy-oxido-phosphoryl]oxy-hydroxy-phosphoryl] hydrogen phosphate
   46    48     1     0     0
SMALL
USER_CHARGES

@<TRIPOS>ATOM
      1 PG          3.0286   -3.6505   -4.6066 P.3       1 ATP         1.5595
      2 O1G         3.0213   -4.1794   -3.1896 O.co2     1 ATP        -0.8438
      3 O2G         4.2075   -3.8963   -5.5216 O.co2     1 ATP        -0.8438
      4 O3G         1.6731   -4.1639   -5.3584 O.3       1 ATP        -0.7800
      5 PB          2.4387   -1.0113   -5.7833 P.3       1 ATP         1.9223
      6 O1B         3.5670   -0.8652   -6.7609 O.2       1 ATP        -0.8953
      7 O2B         1.0400   -1.5119   -6.4209 O.3       1 ATP        -0.8165
      8 O3B         2.7035   -2.0526   -4.5756 O.3       1 ATP        -0.8247
      9 PA          2.9230    1.2546   -3.9578 P.3       1 ATP         1.6157
     10 O1A         2.0225    2.3091   -3.3519 O.co2     1 ATP        -0.8629
     11 O2A         4.2009    1.6442   -4.6683 O.co2     1 ATP        -0.8629
     12 O3A         2.0388    0.3241   -4.9671 O.3       1 ATP        -0.8191
     13 O5'         3.2903    0.1346   -2.8241 O.3       1 ATP        -0.5644
     14 C5'         2.2816   -0.2918   -1.9206 C.3       1 ATP         0.2062
     15 C4'         2.7248    0.0226   -0.4980 C.3       1 ATP         0.0971
     16 O4'         2.4697    1.4219   -0.2462 O.3       1 ATP        -0.3662
     17 C3'         1.9404   -0.7419    0.5596 C.3       1 ATP         0.0734
     18 O3'         2.7418   -0.8086    1.7389 O.3       1 ATP        -0.5671
     19 C2'         0.7477    0.1630    0.7858 C.3       1 ATP         0.0745
     20 O2'         0.1373   -0.0577    2.0407 O.3       1 ATP        -0.5794
     21 C1'         1.3733    1.5427    0.6747 C.3       1 ATP         0.3824
     22 N9          0.4520    2.5240    0.1767 N.pl3     1 ATP        -0.4324
     23 C8         -0.2004    2.4829   -0.9804 C.ar      1 ATP         0.2662
     24 N7         -0.9830    3.5431   -1.1568 N.pl3     1 ATP        -0.4772
     25 C5         -0.8095    4.3012   -0.0331 C.ar      1 ATP        -0.1305
     26 C6         -1.4065    5.5904    0.3585 C.ar      1 ATP         0.7186
     27 N6         -2.2501    6.2030   -0.4084 N.2       1 ATP        -0.8115
     28 N1         -0.9585    6.0272    1.5994 N.pl3     1 ATP        -0.8400
     29 C2         -0.0508    5.3009    2.3532 C.ar      1 ATP         0.6671
     30 N3          0.4890    4.1592    2.0257 N.2       1 ATP        -0.5806
     31 C4          0.0637    3.7006    0.7995 C.ar      1 ATP         0.2748
     32 HOG3        1.5297   -3.9017   -6.2927 H         1 ATP         0.4327
     33 HOB2        0.6149   -0.9685   -7.1182 H         1 ATP         0.4701
     34 H5'1        1.3514    0.2330   -2.1577 H         1 ATP         0.0401
     35 H5'2        2.1280   -1.3678   -2.0460 H         1 ATP         0.0401
     36 H4'         3.8044   -0.1397   -0.4040 H         1 ATP         0.1136
     37 H3'         1.6764   -1.7639    0.2728 H         1 ATP         0.0693
     38 HO3'        2.2232   -1.2979    2.3953 H         1 ATP         0.4124
     39 H2'        -0.0011    0.0027    0.0003 H         1 ATP         0.0854
     40 HO2'       -0.1563   -0.9855    2.0596 H         1 ATP         0.4367
     41 H1'         1.7826    1.9024    1.6451 H         1 ATP         0.1343
     42 H8         -0.1116    1.6863   -1.6984 H         1 ATP         0.3302
     43 HN62       -2.5420    7.0730    0.0447 H         1 ATP         0.4160
     44 H2          0.1969    5.7893    3.3086 H         1 ATP         0.0756
     45 H45        -1.3097    6.9080    1.9642 H         1 ATP         0.4587
     46 H46        -1.5735    3.7351   -1.9538 H         1 ATP         0.5254
@<TRIPOS>BOND
     1    1    2 2
     2    1    3 1
     3    1    4 1
     4    1    8 1
     5    4   32 1
     6    5    6 2
     7    5    7 1
     8    5    8 1
     9    5   12 1
    10    7   33 1
    11    9   10 2
    12    9   11 1
    13    9   12 1
    14    9   13 1
    15   13   14 1
    16   14   15 1
    17   14   34 1
    18   14   35 1
    19   15   16 1
    20   15   17 1
    21   15   36 1
    22   16   21 1
    23   17   18 1
    24   17   19 1
    25   17   37 1
    26   18   38 1
    27   19   20 1
    28   19   21 1
    29   19   39 1
    30   20   40 1
    31   21   22 1
    32   21   41 1
    33   22   23 ar
    34   22   31 ar
    35   23   24 ar
    36   23   42 1
    37   24   25 ar
    38   24   46 1
    39   25   26 ar
    40   25   31 ar
    41   26   27 2
    42   26   28 ar
    43   27   43 1
    44   28   29 ar
    45   28   45 1
    46   29   30 ar
    47   29   44 1
    48   30   31 ar
@<TRIPOS>SUBSTRUCTURE
     1 ATP         1 GROUP 0 A     ****
@<TRIPOS>MOLECULE
[[[3,4-dihydroxy-5-(6-imino-7,8-dihydro-1~{H}-purin-8-ylium-9-yl)tetrahydrofuran-2-yl]methoxy-oxido-phosphoryl]oxy-hydroxy-phosphoryl] hydrogen phosphate
   46    48     1     0     0
SMALL
USER_CHARGES

@<TRIPOS>ATOM
      1 PG          7.3595   -2.1333   -5.0458 P.3       1 ATP         1.5595
      2 O1G         7.9991   -1.0784   -5.9208 O.co2     1 ATP        -0.8438
      3 O2G         7.6174   -3.6039   -5.2874 O.co2     1 ATP        -0.8438
      4 O3G         7.7085   -1.7950   -3.4870 O.3       1 ATP        -0.7800
      5 PB          4.5975   -2.5883   -4.1173 P.3       1 ATP         1.9223
      6 O1B         4.4570   -4.0676   -4.3227 O.2       1 ATP        -0.8953
      7 O2B         4.9399   -2.1360   -2.6035 O.3       1 ATP        -0.8165
      8 O3B         5.7496   -1.8762   -4.9997 O.3       1 ATP        -0.8247
      9 PA          3.0673   -0.0858   -4.4292 P.3       1 ATP         1.6157
     10 O1A         1.6266    0.2116   -4.7838 O.co2     1 ATP        -0.8629
     11 O2A         4.2011    0.5980   -5.1618 O.co2     1 ATP        -0.8629
     12 O3A         3.3063   -1.6991   -4.5069 O.3       1 ATP        -0.8191
     13 O5'         3.2903    0.1346   -2.8241 O.3       1 ATP        -0.5644
     14 C5'         2.2816   -0.2918   -1.9206 C.3       1 ATP         0.2062
     15 C4'         2.7248    0.0226   -0.4980 C.3       1 ATP         0.0971
     16 O4'         2.4697    1.4219   -0.2462 O.3       1 ATP        -0.3662
     17 C3'         1.9404   -0.7419    0.5596 C.3       1 ATP         0.0734
     18 O3'         2.7418   -0.8086    1.7389 O.3       1 ATP        -0.5671
     19 C2'         0.7477    0.1630    0.7858 C.3       1 ATP         0.0745
     20 O2'         0.1373   -0.0577    2.0407 O.3       1 ATP        -0.5794
     21 C1'         1.3733    1.5427    0.6747 C.3       1 ATP         0.3824
     22 N9          0.4520    2.5240    0.1767 N.pl3     1 ATP        -0.4324
     23 C8          0.2216    2.8192   -1.0985 C.ar      1 ATP         0.2662
     24 N7         -0.6906    3.7763   -1.2384 N.pl3     1 ATP        -0.4772
     25 C5         -1.0575    4.1037    0.0366 C.ar      1 ATP        -0.1305
     26 C6         -2.0291    5.0943    0.5330 C.ar      1 ATP         0.7186
     27 N6         -2.7093    5.8371   -0.2800 N.2       1 ATP        -0.8115
     28 N1         -2.1051    5.1136    1.9204 N.pl3     1 ATP        -0.8400
     29 C2         -1.3354    4.2774    2.7129 C.ar      1 ATP         0.6671
     30 N3         -0.4707    3.3945    2.2944 N.2       1 ATP        -0.5806
     31 C4         -0.3734    3.3525    0.9220 C.ar      1 ATP         0.2748
     32 HOG3        7.4124   -0.9356   -3.1183 H         1 ATP         0.4327
     33 HOB2        4.3119   -2.3663   -1.8859 H         1 ATP         0.4701
     34 H5'1        1.3514    0.2330   -2.1577 H         1 ATP         0.0401
     35 H5'2        2.1280   -1.3678   -2.0460 H         1 ATP         0.0401
     36 H4'         3.8044   -0.1397   -0.4040 H         1 ATP         0.1136
     37 H3'         1.6764   -1.7639    0.2728 H         1 ATP         0.0693
     38 HO3'        3.5554   -1.2733    1.4914 H         1 ATP         0.4124
     39 H2'        -0.0011    0.0027    0.0003 H         1 ATP         0.0854
     40 HO2'       -0.1563   -0.9855    2.0596 H         1 ATP         0.4367
     41 H1'         1.7826    1.9024    1.6451 H         1 ATP         0.1343
     42 H8          0.7125    2.3429   -1.9292 H         1 ATP         0.3302
     43 HN62       -3.3217    6.4517    0.2629 H         1 ATP         0.4160
     44 H2         -1.5188    4.4223    3.7890 H         1 ATP         0.0756
     45 H45        -2.7470    5.7627    2.3665 H         1 ATP         0.4587
     46 H46        -1.0305    4.1680   -2.1054 H         1 ATP         0.5254
@<TRIPOS>BOND
     1    1    2 2
     2    1    3 1
     3    1    4 1
     4    1    8 1
     5    4   32 1
     6    5    6 2
     7    5    7 1
     8    5    8 1
     9    5   12 1
    10    7   33 1
    11    9   10 2
    12    9   11 1
    13    9   12 1
    14    9   13 1
    15   13   14 1
    16   14   15 1
    17   14   34 1
    18   14   35 1
    19   15   16 1
    20   15   17 1
    21   15   36 1
    22   16   21 1
    23   17   18 1
    24   17   19 1
    25   17   37 1
    26   18   38 1
    27   19   20 1
    28   19   21 1
    29   19   39 1
    30   20   40 1
    31   21   22 1
    32   21   41 1
    33   22   23 ar
    34   22   31 ar
    35   23   24 ar
    36   23   42 1
    37   24   25 ar
    38   24   46 1
    39   25   26 ar
    40   25   31 ar
    41   26   27 2
    42   26   28 ar
    43   27   43 1
    44   28   29 ar
    45   28   45 1
    46   29   30 ar
    47   29   44 1
    48   30   31 ar
@<TRIPOS>SUBSTRUCTURE
     1 ATP         1 GROUP 0 A     ****
@<TRIPOS>MOLECULE
[[[3,4-dihydroxy-5-(6-imino-7,8-dihydro-1~{H}-purin-8-ylium-9-yl)tetrahydrofuran-2-yl]methoxy-oxido-phosphoryl]oxy-hydroxy-phosphoryl] hydrogen phosphate
   46    48     1     0     0
SMALL
USER_CHARGES

@<TRIPOS>ATOM
      1 PG         -1.3308   -1.0004   -4.9074 P.3       1 ATP         1.5595
      2 O1G        -1.9696   -0.5456   -3.6141 O.co2     1 ATP        -0.8438
      3 O2G        -0.4163   -2.2046   -4.9408 O.co2     1 ATP        -0.8438
      4 O3G        -2.5070   -1.2117   -6.0201 O.3       1 ATP        -0.7800
      5 PB          0.7324    1.0973   -5.1086 P.3       1 ATP         1.9223
      6 O1B         1.1508    2.2169   -6.0151 O.2       1 ATP        -0.8953
      7 O2B         0.3626    1.5399   -3.5984 O.3       1 ATP        -0.8165
      8 O3B        -0.5668    0.2668   -5.5934 O.3       1 ATP        -0.8247
      9 PA          3.3342   -0.0516   -4.3262 P.3       1 ATP         1.6157
     10 O1A         4.1296    0.9783   -5.0986 O.co2     1 ATP        -0.8629
     11 O2A         3.8297   -1.4758   -4.1998 O.co2     1 ATP        -0.8629
     12 O3A         1.8112   -0.0892   -4.9136 O.3       1 ATP        -0.8191
     13 O5'         3.0213    0.5153   -2.8245 O.3       1 ATP        -0.5644
     14 C5'         2.2816   -0.2918   -1.9206 C.3       1 ATP         0.2062
     15 C4'         2.7248    0.0226   -0.4980 C.3       1 ATP         0.0971
     16 O4'         2.4697    1.4219   -0.2462 O.3       1 ATP        -0.3662
     17 C3'         1.9404   -0.7419    0.5596 C.3       1 ATP         0.0734
     18 O3'         2.7418   -0.8086    1.7389 O.3       1 ATP        -0.5671
     19 C2'         0.7477    0.1630    0.7858 C.3       1 ATP         0.0745
     20 O2'         0.1373   -0.0577    2.0407 O.3       1 ATP        -0.5794
     21 C1'         1.3733    1.5427    0.6747 C.3       1 ATP         0.3824
     22 N9          0.4520    2.5240    0.1767 N.pl3     1 ATP        -0.4324
     23 C8          0.5691    3.2215   -0.9485 C.ar      1 ATP         0.2662
     24 N7         -0.4499    4.0551   -1.1342 N.pl3     1 ATP        -0.4772
     25 C5         -1.2618    3.8674   -0.0512 C.ar      1 ATP        -0.1305
     26 C6         -2.5420    4.5007    0.3120 C.ar      1 ATP         0.7186
     27 N6         -3.0874    5.3993   -0.4432 N.2       1 ATP        -0.8115
     28 N1         -3.0494    4.0205    1.5133 N.pl3     1 ATP        -0.8400
     29 C2         -2.3933    3.0527    2.2567 C.ar      1 ATP         0.6671
     30 N3         -1.2611    2.4796    1.9536 N.2       1 ATP        -0.5806
     31 C4         -0.7334    2.9358    0.7669 C.ar      1 ATP         0.2748
     32 HOG3       -2.2509   -1.5084   -6.9194 H         1 ATP         0.4327
     33 HOB2       -0.3680    2.1790   -3.4566 H         1 ATP         0.4701
     34 H5'1        1.2163   -0.0770   -2.0471 H         1 ATP         0.0401
     35 H5'2        2.4655   -1.3443   -2.1563 H         1 ATP         0.0401
     36 H4'         3.8044   -0.1397   -0.4040 H         1 ATP         0.1136
     37 H3'         1.6764   -1.7639    0.2728 H         1 ATP         0.0693
     38 HO3'        2.2232   -1.2979    2.3953 H         1 ATP         0.4124
     39 H2'        -0.0011    0.0027    0.0003 H         1 ATP         0.0854
     40 HO2'       -0.1563   -0.9855    2.0596 H         1 ATP         0.4367
     41 H1'         1.7826    1.9024    1.6451 H         1 ATP         0.1343
     42 H8          1.3912    3.1285   -1.6365 H         1 ATP         0.3302
     43 HN62       -3.9637    5.7084   -0.0142 H         1 ATP         0.4160
     44 H2         -2.9317    2.7866    3.1796 H         1 ATP         0.0756
     45 H45        -3.9307    4.3923    1.8559 H         1 ATP         0.4587
     46 H46        -0.5835    4.6857   -1.9122 H         1 ATP         0.5254
@<TRIPOS>BOND
     1    1    2 2
     2    1    3 1
     3    1    4 1
     4    1    8 1
     5    4   32 1
     6    5    6 2
     7    5    7 1
     8    5    8 1
     9    5   12 1
    10    7   33 1
    11    9   10 2
    12    9   11 1
    13    9   12 1
    14    9   13 1
    15   13   14 1
    16   14   15 1
    17   14   34 1
    18   14   35 1
    19   15   16 1
    20   15   17 1
    21   15   36 1
    22   16   21 1
    23   17   18 1
    24   17   19 1
    25   17   37 1
    26   18   38 1
    27   19   20 1
    28   19   21 1
    29   19   39 1
    30   20   40 1
    31   21   22 1
    32   21   41 1
    33   22   23 ar
    34   22   31 ar
    35   23   24 ar
    36   23   42 1
    37   24   25 ar
    38   24   46 1
    39   25   26 ar
    40   25   31 ar
    41   26   27 2
    42   26   28 ar
    43   27   43 1
    44   28   29 ar
    45   28   45 1
    46   29   30 ar
    47   29   44 1
    48   30   31 ar
@<TRIPOS>SUBSTRUCTURE
     1 ATP         1 GROUP 0 A     ****
@<TRIPOS>MOLECULE
[[[3,4-dihydroxy-5-(6-imino-7,8-dihydro-1~{H}-purin-8-ylium-9-yl)tetrahydrofuran-2-yl]methoxy-oxido-phosphoryl]oxy-hydroxy-phosphoryl] hydrogen phosphate
   46    48     1     0     0
SMALL
USER_CHARGES

@<TRIPOS>ATOM
      1 PG          1.7027   -9.6121    2.4555 P.3       1 ATP         1.5595
      2 O1G         2.5113  -10.1999    3.5905 O.co2     1 ATP        -0.8438
      3 O2G         2.3826   -9.0471    1.2283 O.co2     1 ATP        -0.8438
      4 O3G         0.6026  -10.7191    1.9753 O.3       1 ATP        -0.7800
      5 PB          0.9776   -7.0602    3.7439 P.3       1 ATP         1.9223
      6 O1B         1.8199   -7.1061    4.9843 O.2       1 ATP        -0.8953
      7 O2B         1.5863   -6.1769    2.5344 O.3       1 ATP        -0.8165
      8 O3B         0.6802   -8.4939    3.0592 O.3       1 ATP        -0.8247
      9 PA         -1.7207   -6.2768    2.8457 P.3       1 ATP         1.6157
     10 O1A        -2.8743   -5.5689    3.5224 O.co2     1 ATP        -0.8629
     11 O2A        -1.9358   -7.5875    2.1206 O.co2     1 ATP        -0.8629
     12 O3A        -0.5195   -6.4834    3.9322 O.3       1 ATP        -0.8191
     13 O5'        -0.9724   -5.2440    1.8220 O.3       1 ATP        -0.5644
     14 C5'        -0.7840   -3.8935    2.2172 C.3       1 ATP         0.2062
     15 C4'        -0.0724   -3.1466    1.1027 C.3       1 ATP         0.0971
     16 O4'        -0.8674   -3.1929   -0.0945 O.3       1 ATP        -0.3662
     17 C3'         0.1338   -1.6715    1.4027 C.3       1 ATP         0.0734
     18 O3'         1.2893   -1.4445    2.1808 O.3       1 ATP        -0.5671
     19 C2'         0.2158   -1.0724    0.0128 C.3       1 ATP         0.0745
     20 O2'         1.5141   -1.2448   -0.5513 O.3       1 ATP        -0.5794
     21 C1'        -0.7897   -1.9176   -0.7583 C.3       1 ATP         0.3824
     22 N9         -2.1040   -1.3333   -0.7704 N.pl3     1 ATP        -0.4324
     23 C8         -3.0590   -1.5123    0.1363 C.ar      1 ATP         0.2662
     24 N7         -4.1655   -0.8354   -0.1554 N.pl3     1 ATP        -0.4772
     25 C5         -3.8852   -0.1874   -1.3253 C.ar      1 ATP        -0.1305
     26 C6         -4.7113    0.7160   -2.1458 C.ar      1 ATP         0.7186
     27 N6         -5.9213    1.0209   -1.8021 N.2       1 ATP        -0.8115
     28 N1         -4.0411    1.1673   -3.2764 N.pl3     1 ATP        -0.8400
     29 C2         -2.7403    0.7865   -3.5638 C.ar      1 ATP         0.6671
     30 N3         -1.9921   -0.0108   -2.8519 N.2       1 ATP        -0.5806
     31 C4         -2.6302   -0.4747   -1.7239 C.ar      1 ATP         0.2748
     32 HOG3       -0.0037  -10.4861    1.2402 H         1 ATP         0.4327
     33 HOB2        2.4589   -6.4229    2.1597 H         1 ATP         0.4701
     34 H5'1       -1.7618   -3.4448    2.4164 H         1 ATP         0.0401
     35 H5'2       -0.1874   -3.8744    3.1341 H         1 ATP         0.0401
     36 H4'         0.8874   -3.6466    0.8805 H         1 ATP         0.1136
     37 H3'        -0.7376   -1.2333    1.9867 H         1 ATP         0.0693
     38 HO3'        1.3408   -0.4870    2.3219 H         1 ATP         0.4124
     39 H2'        -0.0384   -0.0310    0.0096 H         1 ATP         0.0854
     40 HO2'        2.1463   -0.7958    0.0370 H         1 ATP         0.4367
     41 H1'        -0.4769   -2.1002   -1.8093 H         1 ATP         0.1343
     42 H8         -2.9569   -2.1323    1.0098 H         1 ATP         0.3302
     43 HN62       -6.3169    1.6552   -2.5012 H         1 ATP         0.4160
     44 H2         -2.3612    1.2343   -4.4957 H         1 ATP         0.0756
     45 H45        -4.5223    1.7976   -3.9117 H         1 ATP         0.4587
     46 H46        -5.0218   -0.8132    0.3804 H         1 ATP         0.5254
@<TRIPOS>BOND
     1    1    2 2
     2    1    3 1
     3    1    4 1
     4    1    8 1
     5    4   32 1
     6    5    6 2
     7    5    7 1
     8    5    8 1
     9    5   12 1
    10    7   33 1
    11    9   10 2
    12    9   11 1
    13    9   12 1
    14    9   13 1
    15   13   14 1
    16   14   15 1
    17   14   34 1
    18   14   35 1
    19   15   16 1
    20   15   17 1
    21   15   36 1
    22   16   21 1
    23   17   18 1
    24   17   19 1
    25   17   37 1
    26   18   38 1
    27   19   20 1
    28   19   21 1
    29   19   39 1
    30   20   40 1
    31   21   22 1
    32   21   41 1
    33   22   23 ar
    34   22   31 ar
    35   23   24 ar
    36   23   42 1
    37   24   25 ar
    38   24   46 1
    39   25   26 ar
    40   25   31 ar
    41   26   27 2
    42   26   28 ar
    43   27   43 1
    44   28   29 ar
    45   28   45 1
    46   29   30 ar
    47   29   44 1
    48   30   31 ar
@<TRIPOS>SUBSTRUCTURE
     1 ATP         1 GROUP 0 A     ****
@<TRIPOS>MOLECULE
[[[3,4-dihydroxy-5-(6-imino-7,8-dihydro-1~{H}-purin-8-ylium-9-yl)tetrahydrofuran-2-yl]methoxy-oxido-phosphoryl]oxy-hydroxy-phosphoryl] hydrogen phosphate
   46    48     1     0     0
SMALL
USER_CHARGES

@<TRIPOS>ATOM
      1 PG          5.7537    2.1169   -6.1657 P.3       1 ATP         1.5595
      2 O1G         5.0531    3.1839   -6.9771 O.co2     1 ATP        -0.8438
      3 O2G         7.0027    1.4406   -6.6853 O.co2     1 ATP        -0.8438
      4 O3G         6.0694    2.7187   -4.6810 O.3       1 ATP        -0.7800
      5 PB          4.8132   -0.3013   -4.7638 P.3       1 ATP         1.9223
      6 O1B         5.8571   -1.3006   -5.1665 O.2       1 ATP        -0.8953
      7 O2B         5.0236    0.3586   -3.3030 O.3       1 ATP        -0.8165
      8 O3B         4.6674    0.9759   -5.7437 O.3       1 ATP        -0.8247
      9 PA          2.6194   -2.0514   -3.8552 P.3       1 ATP         1.6157
     10 O1A         3.4097   -3.3216   -4.0830 O.co2     1 ATP        -0.8629
     11 O2A         1.1233   -2.0206   -4.0799 O.co2     1 ATP        -0.8629
     12 O3A         3.2936   -0.8480   -4.7290 O.3       1 ATP        -0.8191
     13 O5'         2.9216   -1.4836   -2.3516 O.3       1 ATP        -0.5644
     14 C5'         2.2816   -0.2918   -1.9206 C.3       1 ATP         0.2062
     15 C4'         2.7248    0.0226   -0.4980 C.3       1 ATP         0.0971
     16 O4'         2.4697    1.4219   -0.2462 O.3       1 ATP        -0.3662
     17 C3'         1.9404   -0.7419    0.5596 C.3       1 ATP         0.0734
     18 O3'         2.7418   -0.8086    1.7389 O.3       1 ATP        -0.5671
     19 C2'         0.7477    0.1630    0.7858 C.3       1 ATP         0.0745
     20 O2'         0.1373   -0.0577    2.0407 O.3       1 ATP        -0.5794
     21 C1'         1.3733    1.5427    0.6747 C.3       1 ATP         0.3824
     22 N9          0.4520    2.5240    0.1767 N.pl3     1 ATP        -0.4324
     23 C8         -0.2004    2.4829   -0.9804 C.ar      1 ATP         0.2662
     24 N7         -0.9830    3.5431   -1.1568 N.pl3     1 ATP        -0.4772
     25 C5         -0.8095    4.3012   -0.0331 C.ar      1 ATP        -0.1305
     26 C6         -1.4065    5.5904    0.3585 C.ar      1 ATP         0.7186
     27 N6         -2.2501    6.2030   -0.4084 N.2       1 ATP        -0.8115
     28 N1         -0.9585    6.0272    1.5994 N.pl3     1 ATP        -0.8400
     29 C2         -0.0508    5.3009    2.3532 C.ar      1 ATP         0.6671
     30 N3          0.4890    4.1592    2.0257 N.2       1 ATP        -0.5806
     31 C4          0.0637    3.7006    0.7995 C.ar      1 ATP         0.2748
     32 HOG3        6.5253    2.1424   -4.0311 H         1 ATP         0.4327
     33 HOB2        5.0372   -0.2263   -2.5156 H         1 ATP         0.4701
     34 H5'1        2.5589    0.5217   -2.5976 H         1 ATP         0.0401
     35 H5'2        1.1982   -0.4388   -1.9617 H         1 ATP         0.0401
     36 H4'         3.8044   -0.1397   -0.4040 H         1 ATP         0.1136
     37 H3'         1.6764   -1.7639    0.2728 H         1 ATP         0.0693
     38 HO3'        2.2232   -1.2979    2.3953 H         1 ATP         0.4124
     39 H2'        -0.0011    0.0027    0.0003 H         1 ATP         0.0854
     40 HO2'       -0.6141    0.5574    2.1082 H         1 ATP         0.4367
     41 H1'         1.7826    1.9024    1.6451 H         1 ATP         0.1343
     42 H8         -0.1116    1.6863   -1.6984 H         1 ATP         0.3302
     43 HN62       -2.5420    7.0730    0.0447 H         1 ATP         0.4160
     44 H2          0.1969    5.7893    3.3086 H         1 ATP         0.0756
     45 H45        -1.3097    6.9080    1.9642 H         1 ATP         0.4587
     46 H46        -1.5735    3.7351   -1.9538 H         1 ATP         0.5254
@<TRIPOS>BOND
     1    1    2 2
     2    1    3 1
     3    1    4 1
     4    1    8 1
     5    4   32 1
     6    5    6 2
     7    5    7 1
     8    5    8 1
     9    5   12 1
    10    7   33 1
    11    9   10 2
    12    9   11 1
    13    9   12 1
    14    9   13 1
    15   13   14 1
    16   14   15 1
    17   14   34 1
    18   14   35 1
    19   15   16 1
    20   15   17 1
    21   15   36 1
    22   16   21 1
    23   17   18 1
    24   17   19 1
    25   17   37 1
    26   18   38 1
    27   19   20 1
    28   19   21 1
    29   19   39 1
    30   20   40 1
    31   21   22 1
    32   21   41 1
    33   22   23 ar
    34   22   31 ar
    35   23   24 ar
    36   23   42 1
    37   24   25 ar
    38   24   46 1
    39   25   26 ar
    40   25   31 ar
    41   26   27 2
    42   26   28 ar
    43   27   43 1
    44   28   29 ar
    45   28   45 1
    46   29   30 ar
    47   29   44 1
    48   30   31 ar
@<TRIPOS>SUBSTRUCTURE
     1 ATP         1 GROUP 0 A     ****
@<TRIPOS>MOLECULE
[[[3,4-dihydroxy-5-(6-imino-7,8-dihydro-1~{H}-purin-8-ylium-9-yl)tetrahydrofuran-2-yl]methoxy-oxido-phosphoryl]oxy-hydroxy-phosphoryl] hydrogen phosphate
   46    48     1     0     0
SMALL
USER_CHARGES

@<TRIPOS>ATOM
      1 PG          4.9272   -4.0329   -5.8950 P.3       1 ATP         1.5595
      2 O1G         4.4336   -5.4627   -5.8978 O.co2     1 ATP        -0.8438
      3 O2G         5.5549   -3.4301   -4.6581 O.co2     1 ATP        -0.8438
      4 O3G         5.9573   -3.8379   -7.1468 O.3       1 ATP        -0.7800
      5 PB          3.4742   -1.4806   -6.1639 P.3       1 ATP         1.9223
      6 O1B         4.5598   -0.5743   -6.6642 O.2       1 ATP        -0.8953
      7 O2B         2.0137   -1.2202   -6.8063 O.3       1 ATP        -0.8165
      8 O3B         3.7253   -3.0583   -6.4103 O.3       1 ATP        -0.8247
      9 PA          2.1371   -2.2715   -3.6563 P.3       1 ATP         1.6157
     10 O1A         2.4857   -3.7434   -3.7019 O.co2     1 ATP        -0.8629
     11 O2A         0.7457   -1.7949   -4.0121 O.co2     1 ATP        -0.8629
     12 O3A         3.2103   -1.4478   -4.5705 O.3       1 ATP        -0.8191
     13 O5'         2.5245   -1.6648   -2.1878 O.3       1 ATP        -0.5644
     14 C5'         2.2816   -0.2918   -1.9206 C.3       1 ATP         0.2062
     15 C4'         2.7248    0.0226   -0.4980 C.3       1 ATP         0.0971
     16 O4'         2.4697    1.4219   -0.2462 O.3       1 ATP        -0.3662
     17 C3'         1.9404   -0.7419    0.5596 C.3       1 ATP         0.0734
     18 O3'         2.7418   -0.8086    1.7389 O.3       1 ATP        -0.5671
     19 C2'         0.7477    0.1630    0.7858 C.3       1 ATP         0.0745
     20 O2'         0.1373   -0.0577    2.0407 O.3       1 ATP        -0.5794
     21 C1'         1.3733    1.5427    0.6747 C.3       1 ATP         0.3824
     22 N9          0.4520    2.5240    0.1767 N.pl3     1 ATP        -0.4324
     23 C8          0.2216    2.8192   -1.0985 C.ar      1 ATP         0.2662
     24 N7         -0.6906    3.7763   -1.2384 N.pl3     1 ATP        -0.4772
     25 C5         -1.0575    4.1037    0.0366 C.ar      1 ATP        -0.1305
     26 C6         -2.0291    5.0943    0.5330 C.ar      1 ATP         0.7186
     27 N6         -2.7093    5.8371   -0.2800 N.2       1 ATP        -0.8115
     28 N1         -2.1051    5.1136    1.9204 N.pl3     1 ATP        -0.8400
     29 C2         -1.3354    4.2774    2.7129 C.ar      1 ATP         0.6671
     30 N3         -0.4707    3.3945    2.2944 N.2       1 ATP        -0.5806
     31 C4         -0.3734    3.3525    0.9220 C.ar      1 ATP         0.2748
     32 HOG3        6.3665   -2.9566   -7.2815 H         1 ATP         0.4327
     33 HOB2        1.2620   -1.7812   -6.5190 H         1 ATP         0.4701
     34 H5'1        2.8432    0.3119   -2.6398 H         1 ATP         0.0401
     35 H5'2        1.2128   -0.0927   -2.0428 H         1 ATP         0.0401
     36 H4'         3.8044   -0.1397   -0.4040 H         1 ATP         0.1136
     37 H3'         1.6764   -1.7639    0.2728 H         1 ATP         0.0693
     38 HO3'        2.2232   -1.2979    2.3953 H         1 ATP         0.4124
     39 H2'        -0.0011    0.0027    0.0003 H         1 ATP         0.0854
     40 HO2'       -0.6141    0.5574    2.1082 H         1 ATP         0.4367
     41 H1'         1.7826    1.9024    1.6451 H         1 ATP         0.1343
     42 H8          0.7125    2.3429   -1.9292 H         1 ATP         0.3302
     43 HN62       -3.3217    6.4517    0.2629 H         1 ATP         0.4160
     44 H2         -1.5188    4.4223    3.7890 H         1 ATP         0.0756
     45 H45        -2.7470    5.7627    2.3665 H         1 ATP         0.4587
     46 H46        -1.0305    4.1680   -2.1054 H         1 ATP         0.5254
@<TRIPOS>BOND
     1    1    2 2
     2    1    3 1
     3    1    4 1
     4    1    8 1
     5    4   32 1
     6    5    6 2
     7    5    7 1
     8    5    8 1
     9    5   12 1
    10    7   33 1
    11    9   10 2
    12    9   11 1
    13    9   12 1
    14    9   13 1
    15   13   14 1
    16   14   15 1
    17   14   34 1
    18   14   35 1
    19   15   16 1
    20   15   17 1
    21   15   36 1
    22   16   21 1
    23   17   18 1
    24   17   19 1
    25   17   37 1
    26   18   38 1
    27   19   20 1
    28   19   21 1
    29   19   39 1
    30   20   40 1
    31   21   22 1
    32   21   41 1
    33   22   23 ar
    34   22   31 ar
    35   23   24 ar
    36   23   42 1
    37   24   25 ar
    38   24   46 1
    39   25   26 ar
    40   25   31 ar
    41   26   27 2
    42   26   28 ar
    43   27   43 1
    44   28   29 ar
    45   28   45 1
    46   29   30 ar
    47   29   44 1
    48   30   31 ar
@<TRIPOS>SUBSTRUCTURE
     1 ATP         1 GROUP 0 A     ****
@<TRIPOS>MOLECULE
[[[3,4-dihydroxy-5-(6-imino-7,8-dihydro-1~{H}-purin-8-ylium-9-yl)tetrahydrofuran-2-yl]methoxy-oxido-phosphoryl]oxy-hydroxy-phosphoryl] hydrogen phosphate
   46    48     1     0     0
SMALL
USER_CHARGES

@<TRIPOS>ATOM
      1 PG         -4.0596   -2.3462    7.1102 P.3       1 ATP         1.5595
      2 O1G        -3.4788   -2.0659    8.4784 O.co2     1 ATP        -0.8438
      3 O2G        -4.3649   -3.7607    6.6707 O.co2     1 ATP        -0.8438
      4 O3G        -5.4073   -1.4433    6.9245 O.3       1 ATP        -0.7800
      5 PB         -1.6044   -1.9374    5.5282 P.3       1 ATP         1.9223
      6 O1B        -1.0700   -1.0534    4.4404 O.2       1 ATP        -0.8953
      7 O2B        -0.7742   -1.8959    6.9148 O.3       1 ATP        -0.8165
      8 O3B        -3.1246   -1.6289    5.9826 O.3       1 ATP        -0.8247
      9 PA         -0.5251   -4.5707    4.7523 P.3       1 ATP         1.6157
     10 O1A        -1.1708   -5.8915    4.3939 O.co2     1 ATP        -0.8629
     11 O2A         0.5743   -4.5036    5.7899 O.co2     1 ATP        -0.8629
     12 O3A        -1.6935   -3.5111    5.1745 O.3       1 ATP        -0.8191
     13 O5'         0.0118   -3.8395    3.3916 O.3       1 ATP        -0.5644
     14 C5'        -0.7840   -3.8935    2.2172 C.3       1 ATP         0.2062
     15 C4'        -0.0724   -3.1466    1.1027 C.3       1 ATP         0.0971
     16 O4'        -0.8674   -3.1929   -0.0945 O.3       1 ATP        -0.3662
     17 C3'         0.1338   -1.6715    1.4027 C.3       1 ATP         0.0734
     18 O3'         1.2893   -1.4445    2.1808 O.3       1 ATP        -0.5671
     19 C2'         0.2158   -1.0724    0.0128 C.3       1 ATP         0.0745
     20 O2'         1.5141   -1.2448   -0.5513 O.3       1 ATP        -0.5794
     21 C1'        -0.7897   -1.9176   -0.7583 C.3       1 ATP         0.3824
     22 N9         -2.1040   -1.3333   -0.7704 N.pl3     1 ATP        -0.4324
     23 C8         -3.0590   -1.5123    0.1363 C.ar      1 ATP         0.2662
     24 N7         -4.1655   -0.8354   -0.1554 N.pl3     1 ATP        -0.4772
     25 C5         -3.8852   -0.1874   -1.3253 C.ar      1 ATP        -0.1305
     26 C6         -4.7113    0.7160   -2.1458 C.ar      1 ATP         0.7186
     27 N6         -5.9213    1.0209   -1.8021 N.2       1 ATP        -0.8115
     28 N1         -4.0411    1.1673   -3.2764 N.pl3     1 ATP        -0.8400
     29 C2         -2.7403    0.7865   -3.5638 C.ar      1 ATP         0.6671
     30 N3         -1.9921   -0.0108   -2.8519 N.2       1 ATP        -0.5806
     31 C4         -2.6302   -0.4747   -1.7239 C.ar      1 ATP         0.2748
     32 HOG3       -5.9036   -1.5134    6.0812 H         1 ATP         0.4327
     33 HOB2       -0.6887   -1.0427    7.3913 H         1 ATP         0.4701
     34 H5'1       -0.9348   -4.9415    1.9415 H         1 ATP         0.0401
     35 H5'2       -1.7548   -3.4350    2.4278 H         1 ATP         0.0401
     36 H4'         0.8874   -3.6466    0.8805 H         1 ATP         0.1136
     37 H3'        -0.7376   -1.2333    1.9867 H         1 ATP         0.0693
     38 HO3'        1.1626   -1.9325    3.0084 H         1 ATP         0.4124
     39 H2'        -0.0384   -0.0310    0.0096 H         1 ATP         0.0854
     40 HO2'        1.4998   -0.8412   -1.4369 H         1 ATP         0.4367
     41 H1'        -0.4769   -2.1002   -1.8093 H         1 ATP         0.1343
     42 H8         -2.9569   -2.1323    1.0098 H         1 ATP         0.3302
     43 HN62       -6.3169    1.6552   -2.5012 H         1 ATP         0.4160
     44 H2         -2.3612    1.2343   -4.4957 H         1 ATP         0.0756
     45 H45        -4.5223    1.7976   -3.9117 H         1 ATP         0.4587
     46 H46        -5.0218   -0.8132    0.3804 H         1 ATP         0.5254
@<TRIPOS>BOND
     1    1    2 2
     2    1    3 1
     3    1    4 1
     4    1    8 1
     5    4   32 1
     6    5    6 2
     7    5    7 1
     8    5    8 1
     9    5   12 1
    10    7   33 1
    11    9   10 2
    12    9   11 1
    13    9   12 1
    14    9   13 1
    15   13   14 1
    16   14   15 1
    17   14   34 1
    18   14   35 1
    19   15   16 1
    20   15   17 1
    21   15   36 1
    22   16   21 1
    23   17   18 1
    24   17   19 1
    25   17   37 1
    26   18   38 1
    27   19   20 1
    28   19   21 1
    29   19   39 1
    30   20   40 1
    31   21   22 1
    32   21   41 1
    33   22   23 ar
    34   22   31 ar
    35   23   24 ar
    36   23   42 1
    37   24   25 ar
    38   24   46 1
    39   25   26 ar
    40   25   31 ar
    41   26   27 2
    42   26   28 ar
    43   27   43 1
    44   28   29 ar
    45   28   45 1
    46   29   30 ar
    47   29   44 1
    48   30   31 ar
@<TRIPOS>SUBSTRUCTURE
     1 ATP         1 GROUP 0 A     ****
@<TRIPOS>MOLECULE
[[[3,4-dihydroxy-5-(6-imino-7,8-dihydro-1~{H}-purin-8-ylium-9-yl)tetrahydrofuran-2-yl]methoxy-oxido-phosphoryl]oxy-hydroxy-phosphoryl] hydrogen phosphate
   46    48     1     0     0
SMALL
USER_CHARGES

@<TRIPOS>ATOM
      1 PG          1.4873   -3.2842   -8.1050 P.3       1 ATP         1.5595
      2 O1G         2.5630   -4.3265   -8.3150 O.co2     1 ATP        -0.8438
      3 O2G         1.1982   -2.2421   -9.1622 O.co2     1 ATP        -0.8438
      4 O3G         0.0921   -4.0469   -7.7337 O.3       1 ATP        -0.7800
      5 PB          0.8464   -1.4597   -5.8783 P.3       1 ATP         1.9223
      6 O1B         0.5748   -0.1807   -6.6136 O.2       1 ATP        -0.8953
      7 O2B        -0.4687   -2.2992   -5.4548 O.3       1 ATP        -0.8165
      8 O3B         1.7472   -2.5370   -6.6787 O.3       1 ATP        -0.8247
      9 PA          2.1631   -2.4497   -3.4314 P.3       1 ATP         1.6157
     10 O1A         3.1776   -3.3495   -4.1029 O.co2     1 ATP        -0.8629
     11 O2A         0.9355   -3.0309   -2.7643 O.co2     1 ATP        -0.8629
     12 O3A         1.6767   -1.3151   -4.5002 O.3       1 ATP        -0.8191
     13 O5'         2.9216   -1.4836   -2.3516 O.3       1 ATP        -0.5644
     14 C5'         2.2816   -0.2918   -1.9206 C.3       1 ATP         0.2062
     15 C4'         2.7248    0.0226   -0.4980 C.3       1 ATP         0.0971
     16 O4'         2.4697    1.4219   -0.2462 O.3       1 ATP        -0.3662
     17 C3'         1.9404   -0.7419    0.5596 C.3       1 ATP         0.0734
     18 O3'         2.7418   -0.8086    1.7389 O.3       1 ATP        -0.5671
     19 C2'         0.7477    0.1630    0.7858 C.3       1 ATP         0.0745
     20 O2'         0.1373   -0.0577    2.0407 O.3       1 ATP        -0.5794
     21 C1'         1.3733    1.5427    0.6747 C.3       1 ATP         0.3824
     22 N9          0.4520    2.5240    0.1767 N.pl3     1 ATP        -0.4324
     23 C8          0.2216    2.8192   -1.0985 C.ar      1 ATP         0.2662
     24 N7         -0.6906    3.7763   -1.2384 N.pl3     1 ATP        -0.4772
     25 C5         -1.0575    4.1037    0.0366 C.ar      1 ATP        -0.1305
     26 C6         -2.0291    5.0943    0.5330 C.ar      1 ATP         0.7186
     27 N6         -2.7093    5.8371   -0.2800 N.2       1 ATP        -0.8115
     28 N1         -2.1051    5.1136    1.9204 N.pl3     1 ATP        -0.8400
     29 C2         -1.3354    4.2774    2.7129 C.ar      1 ATP         0.6671
     30 N3         -0.4707    3.3945    2.2944 N.2       1 ATP        -0.5806
     31 C4         -0.3734    3.3525    0.9220 C.ar      1 ATP         0.2748
     32 HOG3       -0.7070   -3.5030   -7.5669 H         1 ATP         0.4327
     33 HOB2       -1.1295   -1.8796   -4.8636 H         1 ATP         0.4701
     34 H5'1        2.5589    0.5217   -2.5976 H         1 ATP         0.0401
     35 H5'2        1.1982   -0.4388   -1.9617 H         1 ATP         0.0401
     36 H4'         3.8044   -0.1397   -0.4040 H         1 ATP         0.1136
     37 H3'         1.6764   -1.7639    0.2728 H         1 ATP         0.0693
     38 HO3'        2.2232   -1.2979    2.3953 H         1 ATP         0.4124
     39 H2'        -0.0011    0.0027    0.0003 H         1 ATP         0.0854
     40 HO2'       -0.6141    0.5574    2.1082 H         1 ATP         0.4367
     41 H1'         1.7826    1.9024    1.6451 H         1 ATP         0.1343
     42 H8          0.7125    2.3429   -1.9292 H         1 ATP         0.3302
     43 HN62       -3.3217    6.4517    0.2629 H         1 ATP         0.4160
     44 H2         -1.5188    4.4223    3.7890 H         1 ATP         0.0756
     45 H45        -2.7470    5.7627    2.3665 H         1 ATP         0.4587
     46 H46        -1.0305    4.1680   -2.1054 H         1 ATP         0.5254
@<TRIPOS>BOND
     1    1    2 2
     2    1    3 1
     3    1    4 1
     4    1    8 1
     5    4   32 1
     6    5    6 2
     7    5    7 1
     8    5    8 1
     9    5   12 1
    10    7   33 1
    11    9   10 2
    12    9   11 1
    13    9   12 1
    14    9   13 1
    15   13   14 1
    16   14   15 1
    17   14   34 1
    18   14   35 1
    19   15   16 1
    20   15   17 1
    21   15   36 1
    22   16   21 1
    23   17   18 1
    24   17   19 1
    25   17   37 1
    26   18   38 1
    27   19   20 1
    28   19   21 1
    29   19   39 1
    30   20   40 1
    31   21   22 1
    32   21   41 1
    33   22   23 ar
    34   22   31 ar
    35   23   24 ar
    36   23   42 1
    37   24   25 ar
    38   24   46 1
    39   25   26 ar
    40   25   31 ar
    41   26   27 2
    42   26   28 ar
    43   27   43 1
    44   28   29 ar
    45   28   45 1
    46   29   30 ar
    47   29   44 1
    48   30   31 ar
@<TRIPOS>SUBSTRUCTURE
     1 ATP         1 GROUP 0 A     ****
@<TRIPOS>MOLECULE
[[[3,4-dihydroxy-5-(6-imino-7,8-dihydro-1~{H}-purin-8-ylium-9-yl)tetrahydrofuran-2-yl]methoxy-oxido-phosphoryl]oxy-hydroxy-phosphoryl] hydrogen phosphate
   46    48     1     0     0
SMALL
USER_CHARGES

@<TRIPOS>ATOM
      1 PG          4.4221   -0.6086   -5.5733 P.3       1 ATP         1.5595
      2 O1G         4.1146    0.4353   -6.6237 O.co2     1 ATP        -0.8438
      3 O2G         5.1861   -1.8650   -5.9269 O.co2     1 ATP        -0.8438
      4 O3G         5.1756    0.1215   -4.3221 O.3       1 ATP        -0.7800
      5 PB          1.7308   -1.7980   -5.3733 P.3       1 ATP         1.9223
      6 O1B         1.0265   -1.1283   -6.5160 O.2       1 ATP        -0.8953
      7 O2B         2.2726   -3.2896   -5.6818 O.3       1 ATP        -0.8165
      8 O3B         3.0366   -1.0231   -4.8191 O.3       1 ATP        -0.8247
      9 PA          1.2680   -2.6342   -2.5827 P.3       1 ATP         1.6157
     10 O1A         1.7716   -4.0414   -2.8198 O.co2     1 ATP        -0.8629
     11 O2A         0.1425   -2.3698   -1.6064 O.co2     1 ATP        -0.8629
     12 O3A         0.8669   -1.9697   -4.0192 O.3       1 ATP        -0.8191
     13 O5'         2.5245   -1.6648   -2.1878 O.3       1 ATP        -0.5644
     14 C5'         2.2816   -0.2918   -1.9206 C.3       1 ATP         0.2062
     15 C4'         2.7248    0.0226   -0.4980 C.3       1 ATP         0.0971
     16 O4'         2.4697    1.4219   -0.2462 O.3       1 ATP        -0.3662
     17 C3'         1.9404   -0.7419    0.5596 C.3       1 ATP         0.0734
     18 O3'         2.7418   -0.8086    1.7389 O.3       1 ATP        -0.5671
     19 C2'         0.7477    0.1630    0.7858 C.3       1 ATP         0.0745
     20 O2'         0.1373   -0.0577    2.0407 O.3       1 ATP        -0.5794
     21 C1'         1.3733    1.5427    0.6747 C.3       1 ATP         0.3824
     22 N9          0.4520    2.5240    0.1767 N.pl3     1 ATP        -0.4324
     23 C8          0.2216    2.8192   -1.0985 C.ar      1 ATP         0.2662
     24 N7         -0.6906    3.7763   -1.2384 N.pl3     1 ATP        -0.4772
     25 C5         -1.0575    4.1037    0.0366 C.ar      1 ATP        -0.1305
     26 C6         -2.0291    5.0943    0.5330 C.ar      1 ATP         0.7186
     27 N6         -2.7093    5.8371   -0.2800 N.2       1 ATP        -0.8115
     28 N1         -2.1051    5.1136    1.9204 N.pl3     1 ATP        -0.8400
     29 C2         -1.3354    4.2774    2.7129 C.ar      1 ATP         0.6671
     30 N3         -0.4707    3.3945    2.2944 N.2       1 ATP        -0.5806
     31 C4         -0.3734    3.3525    0.9220 C.ar      1 ATP         0.2748
     32 HOG3        5.4427   -0.4269   -3.5539 H         1 ATP         0.4327
     33 HOB2        2.9234   -3.4180   -6.4044 H         1 ATP         0.4701
     34 H5'1        2.8432    0.3119   -2.6398 H         1 ATP         0.0401
     35 H5'2        1.2128   -0.0927   -2.0428 H         1 ATP         0.0401
     36 H4'         3.8044   -0.1397   -0.4040 H         1 ATP         0.1136
     37 H3'         1.6764   -1.7639    0.2728 H         1 ATP         0.0693
     38 HO3'        2.2232   -1.2979    2.3953 H         1 ATP         0.4124
     39 H2'        -0.0011    0.0027    0.0003 H         1 ATP         0.0854
     40 HO2'       -0.6141    0.5574    2.1082 H         1 ATP         0.4367
     41 H1'         1.7826    1.9024    1.6451 H         1 ATP         0.1343
     42 H8          0.7125    2.3429   -1.9292 H         1 ATP         0.3302
     43 HN62       -3.3217    6.4517    0.2629 H         1 ATP         0.4160
     44 H2         -1.5188    4.4223    3.7890 H         1 ATP         0.0756
     45 H45        -2.7470    5.7627    2.3665 H         1 ATP         0.4587
     46 H46        -1.0305    4.1680   -2.1054 H         1 ATP         0.5254
@<TRIPOS>BOND
     1    1    2 2
     2    1    3 1
     3    1    4 1
     4    1    8 1
     5    4   32 1
     6    5    6 2
     7    5    7 1
     8    5    8 1
     9    5   12 1
    10    7   33 1
    11    9   10 2
    12    9   11 1
    13    9   12 1
    14    9   13 1
    15   13   14 1
    16   14   15 1
    17   14   34 1
    18   14   35 1
    19   15   16 1
    20   15   17 1
    21   15   36 1
    22   16   21 1
    23   17   18 1
    24   17   19 1
    25   17   37 1
    26   18   38 1
    27   19   20 1
    28   19   21 1
    29   19   39 1
    30   20   40 1
    31   21   22 1
    32   21   41 1
    33   22   23 ar
    34   22   31 ar
    35   23   24 ar
    36   23   42 1
    37   24   25 ar
    38   24   46 1
    39   25   26 ar
    40   25   31 ar
    41   26   27 2
    42   26   28 ar
    43   27   43 1
    44   28   29 ar
    45   28   45 1
    46   29   30 ar
    47   29   44 1
    48   30   31 ar
@<TRIPOS>SUBSTRUCTURE
     1 ATP         1 GROUP 0 A     ****
@<TRIPOS>MOLECULE
[[[3,4-dihydroxy-5-(6-imino-7,8-dihydro-1~{H}-purin-8-ylium-9-yl)tetrahydrofuran-2-yl]methoxy-oxido-phosphoryl]oxy-hydroxy-phosphoryl] hydrogen phosphate
   46    48     1     0     0
SMALL
USER_CHARGES

@<TRIPOS>ATOM
      1 PG          0.8588   -4.4124   -6.1242 P.3       1 ATP         1.5595
      2 O1G         1.9264   -4.7673   -7.1351 O.co2     1 ATP        -0.8438
      3 O2G        -0.6086   -4.5559   -6.4610 O.co2     1 ATP        -0.8438
      4 O3G         1.1570   -5.2347   -4.7453 O.3       1 ATP        -0.7800
      5 PB          2.4639   -2.2413   -4.9377 P.3       1 ATP         1.9223
      6 O1B         2.9662   -2.8963   -3.6851 O.2       1 ATP        -0.8953
      7 O2B         3.5107   -2.2250   -6.1696 O.3       1 ATP        -0.8165
      8 O3B         1.1330   -2.9015   -5.5747 O.3       1 ATP        -0.8247
      9 PA          2.8619    0.6169   -4.3269 P.3       1 ATP         1.6157
     10 O1A         1.9202    1.7974   -4.2284 O.co2     1 ATP        -0.8629
     11 O2A         4.1141    0.6950   -5.1728 O.co2     1 ATP        -0.8629
     12 O3A         2.0115   -0.6976   -4.7905 O.3       1 ATP        -0.8191
     13 O5'         3.2903    0.1346   -2.8241 O.3       1 ATP        -0.5644
     14 C5'         2.2816   -0.2918   -1.9206 C.3       1 ATP         0.2062
     15 C4'         2.7248    0.0226   -0.4980 C.3       1 ATP         0.0971
     16 O4'         2.4697    1.4219   -0.2462 O.3       1 ATP        -0.3662
     17 C3'         1.9404   -0.7419    0.5596 C.3       1 ATP         0.0734
     18 O3'         2.7418   -0.8086    1.7389 O.3       1 ATP        -0.5671
     19 C2'         0.7477    0.1630    0.7858 C.3       1 ATP         0.0745
     20 O2'         0.1373   -0.0577    2.0407 O.3       1 ATP        -0.5794
     21 C1'         1.3733    1.5427    0.6747 C.3       1 ATP         0.3824
     22 N9          0.4520    2.5240    0.1767 N.pl3     1 ATP        -0.4324
     23 C8          0.2216    2.8192   -1.0985 C.ar      1 ATP         0.2662
     24 N7         -0.6906    3.7763   -1.2384 N.pl3     1 ATP        -0.4772
     25 C5         -1.0575    4.1037    0.0366 C.ar      1 ATP        -0.1305
     26 C6         -2.0291    5.0943    0.5330 C.ar      1 ATP         0.7186
     27 N6         -2.7093    5.8371   -0.2800 N.2       1 ATP        -0.8115
     28 N1         -2.1051    5.1136    1.9204 N.pl3     1 ATP        -0.8400
     29 C2         -1.3354    4.2774    2.7129 C.ar      1 ATP         0.6671
     30 N3         -0.4707    3.3945    2.2944 N.2       1 ATP        -0.5806
     31 C4         -0.3734    3.3525    0.9220 C.ar      1 ATP         0.2748
     32 HOG3        0.5473   -5.1108   -3.9869 H         1 ATP         0.4327
     33 HOB2        4.3730   -1.7718   -6.0536 H         1 ATP         0.4701
     34 H5'1        1.3514    0.2330   -2.1577 H         1 ATP         0.0401
     35 H5'2        2.1280   -1.3678   -2.0460 H         1 ATP         0.0401
     36 H4'         3.8044   -0.1397   -0.4040 H         1 ATP         0.1136
     37 H3'         1.6764   -1.7639    0.2728 H         1 ATP         0.0693
     38 HO3'        3.5554   -1.2733    1.4914 H         1 ATP         0.4124
     39 H2'        -0.0011    0.0027    0.0003 H         1 ATP         0.0854
     40 HO2'       -0.1563   -0.9855    2.0596 H         1 ATP         0.4367
     41 H1'         1.7826    1.9024    1.6451 H         1 ATP         0.1343
     42 H8          0.7125    2.3429   -1.9292 H         1 ATP         0.3302
     43 HN62       -3.3217    6.4517    0.2629 H         1 ATP         0.4160
     44 H2         -1.5188    4.4223    3.7890 H         1 ATP         0.0756
     45 H45        -2.7470    5.7627    2.3665 H         1 ATP         0.4587
     46 H46        -1.0305    4.1680   -2.1054 H         1 ATP         0.5254
@<TRIPOS>BOND
     1    1    2 2
     2    1    3 1
     3    1    4 1
     4    1    8 1
     5    4   32 1
     6    5    6 2
     7    5    7 1
     8    5    8 1
     9    5   12 1
    10    7   33 1
    11    9   10 2
    12    9   11 1
    13    9   12 1
    14    9   13 1
    15   13   14 1
    16   14   15 1
    17   14   34 1
    18   14   35 1
    19   15   16 1
    20   15   17 1
    21   15   36 1
    22   16   21 1
    23   17   18 1
    24   17   19 1
    25   17   37 1
    26   18   38 1
    27   19   20 1
    28   19   21 1
    29   19   39 1
    30   20   40 1
    31   21   22 1
    32   21   41 1
    33   22   23 ar
    34   22   31 ar
    35   23   24 ar
    36   23   42 1
    37   24   25 ar
    38   24   46 1
    39   25   26 ar
    40   25   31 ar
    41   26   27 2
    42   26   28 ar
    43   27   43 1
    44   28   29 ar
    45   28   45 1
    46   29   30 ar
    47   29   44 1
    48   30   31 ar
@<TRIPOS>SUBSTRUCTURE
     1 ATP         1 GROUP 0 A     ****
@<TRIPOS>MOLECULE
[[[3,4-dihydroxy-5-(6-imino-7,8-dihydro-1~{H}-purin-8-ylium-9-yl)tetrahydrofuran-2-yl]methoxy-oxido-phosphoryl]oxy-hydroxy-phosphoryl] hydrogen phosphate
   46    48     1     0     0
SMALL
USER_CHARGES

@<TRIPOS>ATOM
      1 PG          6.4232    0.4941   -2.4243 P.3       1 ATP         1.5595
      2 O1G         7.5393   -0.4718   -2.7544 O.co2     1 ATP        -0.8438
      3 O2G         6.0794    0.8227   -0.9886 O.co2     1 ATP        -0.8438
      4 O3G         6.6928    1.8911   -3.2256 O.3       1 ATP        -0.7800
      5 PB          4.8132   -0.3013   -4.7638 P.3       1 ATP         1.9223
      6 O1B         5.0753    0.8381   -5.7036 O.2       1 ATP        -0.8953
      7 O2B         5.6986   -1.6274   -5.0308 O.3       1 ATP        -0.8165
      8 O3B         5.0689    0.0216   -3.2007 O.3       1 ATP        -0.8247
      9 PA          2.6194   -2.0514   -3.8552 P.3       1 ATP         1.6157
     10 O1A         3.4097   -3.3216   -4.0830 O.co2     1 ATP        -0.8629
     11 O2A         1.1233   -2.0206   -4.0799 O.co2     1 ATP        -0.8629
     12 O3A         3.2936   -0.8480   -4.7290 O.3       1 ATP        -0.8191
     13 O5'         2.9216   -1.4836   -2.3516 O.3       1 ATP        -0.5644
     14 C5'         2.2816   -0.2918   -1.9206 C.3       1 ATP         0.2062
     15 C4'         2.7248    0.0226   -0.4980 C.3       1 ATP         0.0971
     16 O4'         2.4697    1.4219   -0.2462 O.3       1 ATP        -0.3662
     17 C3'         1.9404   -0.7419    0.5596 C.3       1 ATP         0.0734
     18 O3'         2.7418   -0.8086    1.7389 O.3       1 ATP        -0.5671
     19 C2'         0.7477    0.1630    0.7858 C.3       1 ATP         0.0745
     20 O2'         0.1373   -0.0577    2.0407 O.3       1 ATP        -0.5794
     21 C1'         1.3733    1.5427    0.6747 C.3       1 ATP         0.3824
     22 N9          0.4520    2.5240    0.1767 N.pl3     1 ATP        -0.4324
     23 C8         -0.2004    2.4829   -0.9804 C.ar      1 ATP         0.2662
     24 N7         -0.9830    3.5431   -1.1568 N.pl3     1 ATP        -0.4772
     25 C5         -0.8095    4.3012   -0.0331 C.ar      1 ATP        -0.1305
     26 C6         -1.4065    5.5904    0.3585 C.ar      1 ATP         0.7186
     27 N6         -2.2501    6.2030   -0.4084 N.2       1 ATP        -0.8115
     28 N1         -0.9585    6.0272    1.5994 N.pl3     1 ATP        -0.8400
     29 C2         -0.0508    5.3009    2.3532 C.ar      1 ATP         0.6671
     30 N3          0.4890    4.1592    2.0257 N.2       1 ATP        -0.5806
     31 C4          0.0637    3.7006    0.7995 C.ar      1 ATP         0.2748
     32 HOG3        6.0508    2.6243   -3.1143 H         1 ATP         0.4327
     33 HOB2        6.6761   -1.5635   -4.9802 H         1 ATP         0.4701
     34 H5'1        2.5589    0.5217   -2.5976 H         1 ATP         0.0401
     35 H5'2        1.1982   -0.4388   -1.9617 H         1 ATP         0.0401
     36 H4'         3.8044   -0.1397   -0.4040 H         1 ATP         0.1136
     37 H3'         1.6764   -1.7639    0.2728 H         1 ATP         0.0693
     38 HO3'        2.2232   -1.2979    2.3953 H         1 ATP         0.4124
     39 H2'        -0.0011    0.0027    0.0003 H         1 ATP         0.0854
     40 HO2'       -0.6141    0.5574    2.1082 H         1 ATP         0.4367
     41 H1'         1.7826    1.9024    1.6451 H         1 ATP         0.1343
     42 H8         -0.1116    1.6863   -1.6984 H         1 ATP         0.3302
     43 HN62       -2.5420    7.0730    0.0447 H         1 ATP         0.4160
     44 H2          0.1969    5.7893    3.3086 H         1 ATP         0.0756
     45 H45        -1.3097    6.9080    1.9642 H         1 ATP         0.4587
     46 H46        -1.5735    3.7351   -1.9538 H         1 ATP         0.5254
@<TRIPOS>BOND
     1    1    2 2
     2    1    3 1
     3    1    4 1
     4    1    8 1
     5    4   32 1
     6    5    6 2
     7    5    7 1
     8    5    8 1
     9    5   12 1
    10    7   33 1
    11    9   10 2
    12    9   11 1
    13    9   12 1
    14    9   13 1
    15   13   14 1
    16   14   15 1
    17   14   34 1
    18   14   35 1
    19   15   16 1
    20   15   17 1
    21   15   36 1
    22   16   21 1
    23   17   18 1
    24   17   19 1
    25   17   37 1
    26   18   38 1
    27   19   20 1
    28   19   21 1
    29   19   39 1
    30   20   40 1
    31   21   22 1
    32   21   41 1
    33   22   23 ar
    34   22   31 ar
    35   23   24 ar
    36   23   42 1
    37   24   25 ar
    38   24   46 1
    39   25   26 ar
    40   25   31 ar
    41   26   27 2
    42   26   28 ar
    43   27   43 1
    44   28   29 ar
    45   28   45 1
    46   29   30 ar
    47   29   44 1
    48   30   31 ar
@<TRIPOS>SUBSTRUCTURE
     1 ATP         1 GROUP 0 A     ****
@<TRIPOS>MOLECULE
[[[3,4-dihydroxy-5-(6-imino-7,8-dihydro-1~{H}-purin-8-ylium-9-yl)tetrahydrofuran-2-yl]methoxy-oxido-phosphoryl]oxy-hydroxy-phosphoryl] hydrogen phosphate
   46    48     1     0     0
SMALL
USER_CHARGES

@<TRIPOS>ATOM
      1 PG         -0.7180    2.6264   -6.1149 P.3       1 ATP         1.5595
      2 O1G        -0.7610    1.1671   -6.5102 O.co2     1 ATP        -0.8438
      3 O2G        -0.2466    3.6819   -7.0901 O.co2     1 ATP        -0.8438
      4 O3G        -2.1915    3.0562   -5.5580 O.3       1 ATP        -0.7800
      5 PB          1.6898    2.5225   -4.4150 P.3       1 ATP         1.9223
      6 O1B         2.6415    3.3772   -5.1987 O.2       1 ATP        -0.8953
      7 O2B         1.7919    2.6786   -2.8091 O.3       1 ATP        -0.8165
      8 O3B         0.1233    2.7726   -4.7253 O.3       1 ATP        -0.8247
      9 PA          3.0673   -0.0858   -4.4292 P.3       1 ATP         1.6157
     10 O1A         4.2678    0.4442   -5.1827 O.co2     1 ATP        -0.8629
     11 O2A         2.5799   -1.5015   -4.6484 O.co2     1 ATP        -0.8629
     12 O3A         1.8103    0.9304   -4.6600 O.3       1 ATP        -0.8191
     13 O5'         3.2903    0.1346   -2.8241 O.3       1 ATP        -0.5644
     14 C5'         2.2816   -0.2918   -1.9206 C.3       1 ATP         0.2062
     15 C4'         2.7248    0.0226   -0.4980 C.3       1 ATP         0.0971
     16 O4'         2.4697    1.4219   -0.2462 O.3       1 ATP        -0.3662
     17 C3'         1.9404   -0.7419    0.5596 C.3       1 ATP         0.0734
     18 O3'         2.7418   -0.8086    1.7389 O.3       1 ATP        -0.5671
     19 C2'         0.7477    0.1630    0.7858 C.3       1 ATP         0.0745
     20 O2'         0.1373   -0.0577    2.0407 O.3       1 ATP        -0.5794
     21 C1'         1.3733    1.5427    0.6747 C.3       1 ATP         0.3824
     22 N9          0.4520    2.5240    0.1767 N.pl3     1 ATP        -0.4324
     23 C8         -0.2004    2.4829   -0.9804 C.ar      1 ATP         0.2662
     24 N7         -0.9830    3.5431   -1.1568 N.pl3     1 ATP        -0.4772
     25 C5         -0.8095    4.3012   -0.0331 C.ar      1 ATP        -0.1305
     26 C6         -1.4065    5.5904    0.3585 C.ar      1 ATP         0.7186
     27 N6         -2.2501    6.2030   -0.4084 N.2       1 ATP        -0.8115
     28 N1         -0.9585    6.0272    1.5994 N.pl3     1 ATP        -0.8400
     29 C2         -0.0508    5.3009    2.3532 C.ar      1 ATP         0.6671
     30 N3          0.4890    4.1592    2.0257 N.2       1 ATP        -0.5806
     31 C4          0.0637    3.7006    0.7995 C.ar      1 ATP         0.2748
     32 HOG3       -2.3262    3.9808   -5.2596 H         1 ATP         0.4327
     33 HOB2        2.6413    2.4694   -2.3651 H         1 ATP         0.4701
     34 H5'1        1.3514    0.2330   -2.1577 H         1 ATP         0.0401
     35 H5'2        2.1280   -1.3678   -2.0460 H         1 ATP         0.0401
     36 H4'         3.8044   -0.1397   -0.4040 H         1 ATP         0.1136
     37 H3'         1.6764   -1.7639    0.2728 H         1 ATP         0.0693
     38 HO3'        2.2232   -1.2979    2.3953 H         1 ATP         0.4124
     39 H2'        -0.0011    0.0027    0.0003 H         1 ATP         0.0854
     40 HO2'       -0.6141    0.5574    2.1082 H         1 ATP         0.4367
     41 H1'         1.7826    1.9024    1.6451 H         1 ATP         0.1343
     42 H8         -0.1116    1.6863   -1.6984 H         1 ATP         0.3302
     43 HN62       -2.5420    7.0730    0.0447 H         1 ATP         0.4160
     44 H2          0.1969    5.7893    3.3086 H         1 ATP         0.0756
     45 H45        -1.3097    6.9080    1.9642 H         1 ATP         0.4587
     46 H46        -1.5735    3.7351   -1.9538 H         1 ATP         0.5254
@<TRIPOS>BOND
     1    1    2 2
     2    1    3 1
     3    1    4 1
     4    1    8 1
     5    4   32 1
     6    5    6 2
     7    5    7 1
     8    5    8 1
     9    5   12 1
    10    7   33 1
    11    9   10 2
    12    9   11 1
    13    9   12 1
    14    9   13 1
    15   13   14 1
    16   14   15 1
    17   14   34 1
    18   14   35 1
    19   15   16 1
    20   15   17 1
    21   15   36 1
    22   16   21 1
    23   17   18 1
    24   17   19 1
    25   17   37 1
    26   18   38 1
    27   19   20 1
    28   19   21 1
    29   19   39 1
    30   20   40 1
    31   21   22 1
    32   21   41 1
    33   22   23 ar
    34   22   31 ar
    35   23   24 ar
    36   23   42 1
    37   24   25 ar
    38   24   46 1
    39   25   26 ar
    40   25   31 ar
    41   26   27 2
    42   26   28 ar
    43   27   43 1
    44   28   29 ar
    45   28   45 1
    46   29   30 ar
    47   29   44 1
    48   30   31 ar
@<TRIPOS>SUBSTRUCTURE
     1 ATP         1 GROUP 0 A     ****
@<TRIPOS>MOLECULE
[[[3,4-dihydroxy-5-(6-imino-7,8-dihydro-1~{H}-purin-8-ylium-9-yl)tetrahydrofuran-2-yl]methoxy-oxido-phosphoryl]oxy-hydroxy-phosphoryl] hydrogen phosphate
   46    48     1     0     0
SMALL
USER_CHARGES

@<TRIPOS>ATOM
      1 PG          0.9306   -0.2552   -7.7560 P.3       1 ATP         1.5595
      2 O1G         2.1745    0.6047   -7.7245 O.co2     1 ATP        -0.8438
      3 O2G        -0.3893    0.3051   -8.2370 O.co2     1 ATP        -0.8438
      4 O3G         1.2588   -1.6104   -8.6055 O.3       1 ATP        -0.7800
      5 PB          1.7308   -1.7980   -5.3733 P.3       1 ATP         1.9223
      6 O1B         2.2253   -3.0693   -5.9973 O.2       1 ATP        -0.8953
      7 O2B         2.8838   -0.7395   -4.9685 O.3       1 ATP        -0.8165
      8 O3B         0.7179   -0.9304   -6.2867 O.3       1 ATP        -0.8247
      9 PA          1.2680   -2.6342   -2.5827 P.3       1 ATP         1.6157
     10 O1A         1.7716   -4.0414   -2.8198 O.co2     1 ATP        -0.8629
     11 O2A         0.1425   -2.3698   -1.6064 O.co2     1 ATP        -0.8629
     12 O3A         0.8669   -1.9697   -4.0192 O.3       1 ATP        -0.8191
     13 O5'         2.5245   -1.6648   -2.1878 O.3       1 ATP        -0.5644
     14 C5'         2.2816   -0.2918   -1.9206 C.3       1 ATP         0.2062
     15 C4'         2.7248    0.0226   -0.4980 C.3       1 ATP         0.0971
     16 O4'         2.4697    1.4219   -0.2462 O.3       1 ATP        -0.3662
     17 C3'         1.9404   -0.7419    0.5596 C.3       1 ATP         0.0734
     18 O3'         2.7418   -0.8086    1.7389 O.3       1 ATP        -0.5671
     19 C2'         0.7477    0.1630    0.7858 C.3       1 ATP         0.0745
     20 O2'         0.1373   -0.0577    2.0407 O.3       1 ATP        -0.5794
     21 C1'         1.3733    1.5427    0.6747 C.3       1 ATP         0.3824
     22 N9          0.4520    2.5240    0.1767 N.pl3     1 ATP        -0.4324
     23 C8          0.2216    2.8192   -1.0985 C.ar      1 ATP         0.2662
     24 N7         -0.6906    3.7763   -1.2384 N.pl3     1 ATP        -0.4772
     25 C5         -1.0575    4.1037    0.0366 C.ar      1 ATP        -0.1305
     26 C6         -2.0291    5.0943    0.5330 C.ar      1 ATP         0.7186
     27 N6         -2.7093    5.8371   -0.2800 N.2       1 ATP        -0.8115
     28 N1         -2.1051    5.1136    1.9204 N.pl3     1 ATP        -0.8400
     29 C2         -1.3354    4.2774    2.7129 C.ar      1 ATP         0.6671
     30 N3         -0.4707    3.3945    2.2944 N.2       1 ATP        -0.5806
     31 C4         -0.3734    3.3525    0.9220 C.ar      1 ATP         0.2748
     32 HOG3        0.5464   -2.2754   -8.7171 H         1 ATP         0.4327
     33 HOB2        3.5712   -1.0103   -4.3232 H         1 ATP         0.4701
     34 H5'1        2.8432    0.3119   -2.6398 H         1 ATP         0.0401
     35 H5'2        1.2128   -0.0927   -2.0428 H         1 ATP         0.0401
     36 H4'         3.8044   -0.1397   -0.4040 H         1 ATP         0.1136
     37 H3'         1.6764   -1.7639    0.2728 H         1 ATP         0.0693
     38 HO3'        2.2232   -1.2979    2.3953 H         1 ATP         0.4124
     39 H2'        -0.0011    0.0027    0.0003 H         1 ATP         0.0854
     40 HO2'       -0.1563   -0.9855    2.0596 H         1 ATP         0.4367
     41 H1'         1.7826    1.9024    1.6451 H         1 ATP         0.1343
     42 H8          0.7125    2.3429   -1.9292 H         1 ATP         0.3302
     43 HN62       -3.3217    6.4517    0.2629 H         1 ATP         0.4160
     44 H2         -1.5188    4.4223    3.7890 H         1 ATP         0.0756
     45 H45        -2.7470    5.7627    2.3665 H         1 ATP         0.4587
     46 H46        -1.0305    4.1680   -2.1054 H         1 ATP         0.5254
@<TRIPOS>BOND
     1    1    2 2
     2    1    3 1
     3    1    4 1
     4    1    8 1
     5    4   32 1
     6    5    6 2
     7    5    7 1
     8    5    8 1
     9    5   12 1
    10    7   33 1
    11    9   10 2
    12    9   11 1
    13    9   12 1
    14    9   13 1
    15   13   14 1
    16   14   15 1
    17   14   34 1
    18   14   35 1
    19   15   16 1
    20   15   17 1
    21   15   36 1
    22   16   21 1
    23   17   18 1
    24   17   19 1
    25   17   37 1
    26   18   38 1
    27   19   20 1
    28   19   21 1
    29   19   39 1
    30   20   40 1
    31   21   22 1
    32   21   41 1
    33   22   23 ar
    34   22   31 ar
    35   23   24 ar
    36   23   42 1
    37   24   25 ar
    38   24   46 1
    39   25   26 ar
    40   25   31 ar
    41   26   27 2
    42   26   28 ar
    43   27   43 1
    44   28   29 ar
    45   28   45 1
    46   29   30 ar
    47   29   44 1
    48   30   31 ar
@<TRIPOS>SUBSTRUCTURE
     1 ATP         1 GROUP 0 A     ****
@<TRIPOS>MOLECULE
[[[3,4-dihydroxy-5-(6-imino-7,8-dihydro-1~{H}-purin-8-ylium-9-yl)tetrahydrofuran-2-yl]methoxy-oxido-phosphoryl]oxy-hydroxy-phosphoryl] hydrogen phosphate
   46    48     1     0     0
SMALL
USER_CHARGES

@<TRIPOS>ATOM
      1 PG          4.7845   -1.3308   -7.5419 P.3       1 ATP         1.5595
      2 O1G         4.0558   -1.7894   -8.7855 O.co2     1 ATP        -0.8438
      3 O2G         5.5595   -2.3109   -6.6897 O.co2     1 ATP        -0.8438
      4 O3G         5.7765   -0.0988   -7.9472 O.3       1 ATP        -0.7800
      5 PB          2.4387   -1.0113   -5.7833 P.3       1 ATP         1.9223
      6 O1B         1.3529   -1.6093   -6.6281 O.2       1 ATP        -0.8953
      7 O2B         3.0453   -1.9931   -4.6512 O.3       1 ATP        -0.8165
      8 O3B         3.7439   -0.5080   -6.5932 O.3       1 ATP        -0.8247
      9 PA          2.9230    1.2546   -3.9578 P.3       1 ATP         1.6157
     10 O1A         2.0225    2.3091   -3.3519 O.co2     1 ATP        -0.8629
     11 O2A         4.2009    1.6442   -4.6683 O.co2     1 ATP        -0.8629
     12 O3A         2.0388    0.3241   -4.9671 O.3       1 ATP        -0.8191
     13 O5'         3.2903    0.1346   -2.8241 O.3       1 ATP        -0.5644
     14 C5'         2.2816   -0.2918   -1.9206 C.3       1 ATP         0.2062
     15 C4'         2.7248    0.0226   -0.4980 C.3       1 ATP         0.0971
     16 O4'         2.4697    1.4219   -0.2462 O.3       1 ATP        -0.3662
     17 C3'         1.9404   -0.7419    0.5596 C.3       1 ATP         0.0734
     18 O3'         2.7418   -0.8086    1.7389 O.3       1 ATP        -0.5671
     19 C2'         0.7477    0.1630    0.7858 C.3       1 ATP         0.0745
     20 O2'         0.1373   -0.0577    2.0407 O.3       1 ATP        -0.5794
     21 C1'         1.3733    1.5427    0.6747 C.3       1 ATP         0.3824
     22 N9          0.4520    2.5240    0.1767 N.pl3     1 ATP        -0.4324
     23 C8         -0.2004    2.4829   -0.9804 C.ar      1 ATP         0.2662
     24 N7         -0.9830    3.5431   -1.1568 N.pl3     1 ATP        -0.4772
     25 C5         -0.8095    4.3012   -0.0331 C.ar      1 ATP        -0.1305
     26 C6         -1.4065    5.5904    0.3585 C.ar      1 ATP         0.7186
     27 N6         -2.2501    6.2030   -0.4084 N.2       1 ATP        -0.8115
     28 N1         -0.9585    6.0272    1.5994 N.pl3     1 ATP        -0.8400
     29 C2         -0.0508    5.3009    2.3532 C.ar      1 ATP         0.6671
     30 N3          0.4890    4.1592    2.0257 N.2       1 ATP        -0.5806
     31 C4          0.0637    3.7006    0.7995 C.ar      1 ATP         0.2748
     32 HOG3        6.3229    0.3113   -7.2433 H         1 ATP         0.4327
     33 HOB2        2.4458   -2.3496   -3.9615 H         1 ATP         0.4701
     34 H5'1        1.3514    0.2330   -2.1577 H         1 ATP         0.0401
     35 H5'2        2.1280   -1.3678   -2.0460 H         1 ATP         0.0401
     36 H4'         3.8044   -0.1397   -0.4040 H         1 ATP         0.1136
     37 H3'         1.6764   -1.7639    0.2728 H         1 ATP         0.0693
     38 HO3'        2.2232   -1.2979    2.3953 H         1 ATP         0.4124
     39 H2'        -0.0011    0.0027    0.0003 H         1 ATP         0.0854
     40 HO2'       -0.6141    0.5574    2.1082 H         1 ATP         0.4367
     41 H1'         1.7826    1.9024    1.6451 H         1 ATP         0.1343
     42 H8         -0.1116    1.6863   -1.6984 H         1 ATP         0.3302
     43 HN62       -2.5420    7.0730    0.0447 H         1 ATP         0.4160
     44 H2          0.1969    5.7893    3.3086 H         1 ATP         0.0756
     45 H45        -1.3097    6.9080    1.9642 H         1 ATP         0.4587
     46 H46        -1.5735    3.7351   -1.9538 H         1 ATP         0.5254
@<TRIPOS>BOND
     1    1    2 2
     2    1    3 1
     3    1    4 1
     4    1    8 1
     5    4   32 1
     6    5    6 2
     7    5    7 1
     8    5    8 1
     9    5   12 1
    10    7   33 1
    11    9   10 2
    12    9   11 1
    13    9   12 1
    14    9   13 1
    15   13   14 1
    16   14   15 1
    17   14   34 1
    18   14   35 1
    19   15   16 1
    20   15   17 1
    21   15   36 1
    22   16   21 1
    23   17   18 1
    24   17   19 1
    25   17   37 1
    26   18   38 1
    27   19   20 1
    28   19   21 1
    29   19   39 1
    30   20   40 1
    31   21   22 1
    32   21   41 1
    33   22   23 ar
    34   22   31 ar
    35   23   24 ar
    36   23   42 1
    37   24   25 ar
    38   24   46 1
    39   25   26 ar
    40   25   31 ar
    41   26   27 2
    42   26   28 ar
    43   27   43 1
    44   28   29 ar
    45   28   45 1
    46   29   30 ar
    47   29   44 1
    48   30   31 ar
@<TRIPOS>SUBSTRUCTURE
     1 ATP         1 GROUP 0 A     ****
@<TRIPOS>MOLECULE
[[[3,4-dihydroxy-5-(6-imino-7,8-dihydro-1~{H}-purin-8-ylium-9-yl)tetrahydrofuran-2-yl]methoxy-oxido-phosphoryl]oxy-hydroxy-phosphoryl] hydrogen phosphate
   46    48     1     0     0
SMALL
USER_CHARGES

@<TRIPOS>ATOM
      1 PG          2.8965   -8.6589    3.8565 P.3       1 ATP         1.5595
      2 O1G         3.8030   -7.9189    2.8982 O.co2     1 ATP        -0.8438
      3 O2G         2.5111  -10.0997    3.6056 O.co2     1 ATP        -0.8438
      4 O3G         3.5266   -8.5448    5.3586 O.3       1 ATP        -0.7800
      5 PB          1.3570   -6.2373    4.5376 P.3       1 ATP         1.9223
      6 O1B         1.9363   -5.8862    5.8761 O.2       1 ATP        -0.8953
      7 O2B         1.9562   -5.4007    3.2908 O.3       1 ATP        -0.8165
      8 O3B         1.5430   -7.7791    4.0892 O.3       1 ATP        -0.8247
      9 PA         -1.2302   -6.3289    3.1239 P.3       1 ATP         1.6157
     10 O1A        -2.6253   -5.8653    3.4829 O.co2     1 ATP        -0.8629
     11 O2A        -0.9875   -7.7370    2.6259 O.co2     1 ATP        -0.8629
     12 O3A        -0.2419   -6.0574    4.3950 O.3       1 ATP        -0.8191
     13 O5'        -0.5687   -5.2869    2.0510 O.3       1 ATP        -0.5644
     14 C5'        -0.7840   -3.8935    2.2172 C.3       1 ATP         0.2062
     15 C4'        -0.0724   -3.1466    1.1027 C.3       1 ATP         0.0971
     16 O4'        -0.8674   -3.1929   -0.0945 O.3       1 ATP        -0.3662
     17 C3'         0.1338   -1.6715    1.4027 C.3       1 ATP         0.0734
     18 O3'         1.2893   -1.4445    2.1808 O.3       1 ATP        -0.5671
     19 C2'         0.2158   -1.0724    0.0128 C.3       1 ATP         0.0745
     20 O2'         1.5141   -1.2448   -0.5513 O.3       1 ATP        -0.5794
     21 C1'        -0.7897   -1.9176   -0.7583 C.3       1 ATP         0.3824
     22 N9         -2.1040   -1.3333   -0.7704 N.pl3     1 ATP        -0.4324
     23 C8         -3.0590   -1.5123    0.1363 C.ar      1 ATP         0.2662
     24 N7         -4.1655   -0.8354   -0.1554 N.pl3     1 ATP        -0.4772
     25 C5         -3.8852   -0.1874   -1.3253 C.ar      1 ATP        -0.1305
     26 C6         -4.7113    0.7160   -2.1458 C.ar      1 ATP         0.7186
     27 N6         -5.9213    1.0209   -1.8021 N.2       1 ATP        -0.8115
     28 N1         -4.0411    1.1673   -3.2764 N.pl3     1 ATP        -0.8400
     29 C2         -2.7403    0.7865   -3.5638 C.ar      1 ATP         0.6671
     30 N3         -1.9921   -0.0108   -2.8519 N.2       1 ATP        -0.5806
     31 C4         -2.6302   -0.4747   -1.7239 C.ar      1 ATP         0.2748
     32 HOG3        3.0500   -8.9775    6.0987 H         1 ATP         0.4327
     33 HOB2        2.9168   -5.4562    3.0999 H         1 ATP         0.4701
     34 H5'1       -1.8598   -3.6968    2.1850 H         1 ATP         0.0401
     35 H5'2       -0.3933   -3.5903    3.1931 H         1 ATP         0.0401
     36 H4'         0.8874   -3.6466    0.8805 H         1 ATP         0.1136
     37 H3'        -0.7376   -1.2333    1.9867 H         1 ATP         0.0693
     38 HO3'        1.3408   -0.4870    2.3219 H         1 ATP         0.4124
     39 H2'        -0.0384   -0.0310    0.0096 H         1 ATP         0.0854
     40 HO2'        2.1463   -0.7958    0.0370 H         1 ATP         0.4367
     41 H1'        -0.4769   -2.1002   -1.8093 H         1 ATP         0.1343
     42 H8         -2.9569   -2.1323    1.0098 H         1 ATP         0.3302
     43 HN62       -6.3169    1.6552   -2.5012 H         1 ATP         0.4160
     44 H2         -2.3612    1.2343   -4.4957 H         1 ATP         0.0756
     45 H45        -4.5223    1.7976   -3.9117 H         1 ATP         0.4587
     46 H46        -5.0218   -0.8132    0.3804 H         1 ATP         0.5254
@<TRIPOS>BOND
     1    1    2 2
     2    1    3 1
     3    1    4 1
     4    1    8 1
     5    4   32 1
     6    5    6 2
     7    5    7 1
     8    5    8 1
     9    5   12 1
    10    7   33 1
    11    9   10 2
    12    9   11 1
    13    9   12 1
    14    9   13 1
    15   13   14 1
    16   14   15 1
    17   14   34 1
    18   14   35 1
    19   15   16 1
    20   15   17 1
    21   15   36 1
    22   16   21 1
    23   17   18 1
    24   17   19 1
    25   17   37 1
    26   18   38 1
    27   19   20 1
    28   19   21 1
    29   19   39 1
    30   20   40 1
    31   21   22 1
    32   21   41 1
    33   22   23 ar
    34   22   31 ar
    35   23   24 ar
    36   23   42 1
    37   24   25 ar
    38   24   46 1
    39   25   26 ar
    40   25   31 ar
    41   26   27 2
    42   26   28 ar
    43   27   43 1
    44   28   29 ar
    45   28   45 1
    46   29   30 ar
    47   29   44 1
    48   30   31 ar
@<TRIPOS>SUBSTRUCTURE
     1 ATP         1 GROUP 0 A     ****
@<TRIPOS>MOLECULE
[[[3,4-dihydroxy-5-(6-imino-7,8-dihydro-1~{H}-purin-8-ylium-9-yl)tetrahydrofuran-2-yl]methoxy-oxido-phosphoryl]oxy-hydroxy-phosphoryl] hydrogen phosphate
   46    48     1     0     0
SMALL
USER_CHARGES

@<TRIPOS>ATOM
      1 PG          2.8301    2.8348   -7.1168 P.3       1 ATP         1.5595
      2 O1G         1.6252    3.4597   -7.7841 O.co2     1 ATP        -0.8438
      3 O2G         3.1923    1.3875   -7.3653 O.co2     1 ATP        -0.8438
      4 O3G         4.1376    3.7588   -7.4376 O.3       1 ATP        -0.7800
      5 PB          1.6898    2.5225   -4.4150 P.3       1 ATP         1.9223
      6 O1B         1.9223    2.9854   -3.0071 O.2       1 ATP        -0.8953
      7 O2B         0.2449    2.9037   -5.0320 O.3       1 ATP        -0.8165
      8 O3B         2.7354    3.0908   -5.5089 O.3       1 ATP        -0.8247
      9 PA          3.0673   -0.0858   -4.4292 P.3       1 ATP         1.6157
     10 O1A         4.2678    0.4442   -5.1827 O.co2     1 ATP        -0.8629
     11 O2A         2.5799   -1.5015   -4.6484 O.co2     1 ATP        -0.8629
     12 O3A         1.8103    0.9304   -4.6600 O.3       1 ATP        -0.8191
     13 O5'         3.2903    0.1346   -2.8241 O.3       1 ATP        -0.5644
     14 C5'         2.2816   -0.2918   -1.9206 C.3       1 ATP         0.2062
     15 C4'         2.7248    0.0226   -0.4980 C.3       1 ATP         0.0971
     16 O4'         2.4697    1.4219   -0.2462 O.3       1 ATP        -0.3662
     17 C3'         1.9404   -0.7419    0.5596 C.3       1 ATP         0.0734
     18 O3'         2.7418   -0.8086    1.7389 O.3       1 ATP        -0.5671
     19 C2'         0.7477    0.1630    0.7858 C.3       1 ATP         0.0745
     20 O2'         0.1373   -0.0577    2.0407 O.3       1 ATP        -0.5794
     21 C1'         1.3733    1.5427    0.6747 C.3       1 ATP         0.3824
     22 N9          0.4520    2.5240    0.1767 N.pl3     1 ATP        -0.4324
     23 C8         -0.2004    2.4829   -0.9804 C.ar      1 ATP         0.2662
     24 N7         -0.9830    3.5431   -1.1568 N.pl3     1 ATP        -0.4772
     25 C5         -0.8095    4.3012   -0.0331 C.ar      1 ATP        -0.1305
     26 C6         -1.4065    5.5904    0.3585 C.ar      1 ATP         0.7186
     27 N6         -2.2501    6.2030   -0.4084 N.2       1 ATP        -0.8115
     28 N1         -0.9585    6.0272    1.5994 N.pl3     1 ATP        -0.8400
     29 C2         -0.0508    5.3009    2.3532 C.ar      1 ATP         0.6671
     30 N3          0.4890    4.1592    2.0257 N.2       1 ATP        -0.5806
     31 C4          0.0637    3.7006    0.7995 C.ar      1 ATP         0.2748
     32 HOG3        5.0049    3.4836   -7.0712 H         1 ATP         0.4327
     33 HOB2       -0.0070    3.8492   -5.1013 H         1 ATP         0.4701
     34 H5'1        1.3514    0.2330   -2.1577 H         1 ATP         0.0401
     35 H5'2        2.1280   -1.3678   -2.0460 H         1 ATP         0.0401
     36 H4'         3.8044   -0.1397   -0.4040 H         1 ATP         0.1136
     37 H3'         1.6764   -1.7639    0.2728 H         1 ATP         0.0693
     38 HO3'        3.5554   -1.2733    1.4914 H         1 ATP         0.4124
     39 H2'        -0.0011    0.0027    0.0003 H         1 ATP         0.0854
     40 HO2'       -0.1563   -0.9855    2.0596 H         1 ATP         0.4367
     41 H1'         1.7826    1.9024    1.6451 H         1 ATP         0.1343
     42 H8         -0.1116    1.6863   -1.6984 H         1 ATP         0.3302
     43 HN62       -2.5420    7.0730    0.0447 H         1 ATP         0.4160
     44 H2          0.1969    5.7893    3.3086 H         1 ATP         0.0756
     45 H45        -1.3097    6.9080    1.9642 H         1 ATP         0.4587
     46 H46        -1.5735    3.7351   -1.9538 H         1 ATP         0.5254
@<TRIPOS>BOND
     1    1    2 2
     2    1    3 1
     3    1    4 1
     4    1    8 1
     5    4   32 1
     6    5    6 2
     7    5    7 1
     8    5    8 1
     9    5   12 1
    10    7   33 1
    11    9   10 2
    12    9   11 1
    13    9   12 1
    14    9   13 1
    15   13   14 1
    16   14   15 1
    17   14   34 1
    18   14   35 1
    19   15   16 1
    20   15   17 1
    21   15   36 1
    22   16   21 1
    23   17   18 1
    24   17   19 1
    25   17   37 1
    26   18   38 1
    27   19   20 1
    28   19   21 1
    29   19   39 1
    30   20   40 1
    31   21   22 1
    32   21   41 1
    33   22   23 ar
    34   22   31 ar
    35   23   24 ar
    36   23   42 1
    37   24   25 ar
    38   24   46 1
    39   25   26 ar
    40   25   31 ar
    41   26   27 2
    42   26   28 ar
    43   27   43 1
    44   28   29 ar
    45   28   45 1
    46   29   30 ar
    47   29   44 1
    48   30   31 ar
@<TRIPOS>SUBSTRUCTURE
     1 ATP         1 GROUP 0 A     ****
@<TRIPOS>MOLECULE
[[[3,4-dihydroxy-5-(6-imino-7,8-dihydro-1~{H}-purin-8-ylium-9-yl)tetrahydrofuran-2-yl]methoxy-oxido-phosphoryl]oxy-hydroxy-phosphoryl] hydrogen phosphate
   46    48     1     0     0
SMALL
USER_CHARGES

@<TRIPOS>ATOM
      1 PG         -1.1809    2.5127   -6.4609 P.3       1 ATP         1.5595
      2 O1G        -2.0768    1.3047   -6.6212 O.co2     1 ATP        -0.8438
      3 O2G        -0.6668    3.2644   -7.6685 O.co2     1 ATP        -0.8438
      4 O3G        -1.9171    3.5753   -5.4635 O.3       1 ATP        -0.7800
      5 PB          1.2557    3.0281   -4.8813 P.3       1 ATP         1.9223
      6 O1B         2.1115    3.7439   -5.8840 O.2       1 ATP        -0.8953
      7 O2B         0.4793    3.9856   -3.8353 O.3       1 ATP        -0.8165
      8 O3B         0.0802    2.1121   -5.5073 O.3       1 ATP        -0.8247
      9 PA          2.8619    0.6169   -4.3269 P.3       1 ATP         1.6157
     10 O1A         4.0991    1.0216   -5.0986 O.co2     1 ATP        -0.8629
     11 O2A         1.8962   -0.4016   -4.8925 O.co2     1 ATP        -0.8629
     12 O3A         2.0200    1.9612   -3.9394 O.3       1 ATP        -0.8191
     13 O5'         3.2903    0.1346   -2.8241 O.3       1 ATP        -0.5644
     14 C5'         2.2816   -0.2918   -1.9206 C.3       1 ATP         0.2062
     15 C4'         2.7248    0.0226   -0.4980 C.3       1 ATP         0.0971
     16 O4'         2.4697    1.4219   -0.2462 O.3       1 ATP        -0.3662
     17 C3'         1.9404   -0.7419    0.5596 C.3       1 ATP         0.0734
     18 O3'         2.7418   -0.8086    1.7389 O.3       1 ATP        -0.5671
     19 C2'         0.7477    0.1630    0.7858 C.3       1 ATP         0.0745
     20 O2'         0.1373   -0.0577    2.0407 O.3       1 ATP        -0.5794
     21 C1'         1.3733    1.5427    0.6747 C.3       1 ATP         0.3824
     22 N9          0.4520    2.5240    0.1767 N.pl3     1 ATP        -0.4324
     23 C8          0.5691    3.2215   -0.9485 C.ar      1 ATP         0.2662
     24 N7         -0.4499    4.0551   -1.1342 N.pl3     1 ATP        -0.4772
     25 C5         -1.2618    3.8674   -0.0512 C.ar      1 ATP        -0.1305
     26 C6         -2.5420    4.5007    0.3120 C.ar      1 ATP         0.7186
     27 N6         -3.0874    5.3993   -0.4432 N.2       1 ATP        -0.8115
     28 N1         -3.0494    4.0205    1.5133 N.pl3     1 ATP        -0.8400
     29 C2         -2.3933    3.0527    2.2567 C.ar      1 ATP         0.6671
     30 N3         -1.2611    2.4796    1.9536 N.2       1 ATP        -0.5806
     31 C4         -0.7334    2.9358    0.7669 C.ar      1 ATP         0.2748
     32 HOG3       -1.4584    4.4178   -5.2585 H         1 ATP         0.4327
     33 HOB2        1.0038    4.5722   -3.2496 H         1 ATP         0.4701
     34 H5'1        1.3514    0.2330   -2.1577 H         1 ATP         0.0401
     35 H5'2        2.1280   -1.3678   -2.0460 H         1 ATP         0.0401
     36 H4'         3.8044   -0.1397   -0.4040 H         1 ATP         0.1136
     37 H3'         1.6764   -1.7639    0.2728 H         1 ATP         0.0693
     38 HO3'        2.2232   -1.2979    2.3953 H         1 ATP         0.4124
     39 H2'        -0.0011    0.0027    0.0003 H         1 ATP         0.0854
     40 HO2'       -0.1563   -0.9855    2.0596 H         1 ATP         0.4367
     41 H1'         1.7826    1.9024    1.6451 H         1 ATP         0.1343
     42 H8          1.3912    3.1285   -1.6365 H         1 ATP         0.3302
     43 HN62       -3.9637    5.7084   -0.0142 H         1 ATP         0.4160
     44 H2         -2.9317    2.7866    3.1796 H         1 ATP         0.0756
     45 H45        -3.9307    4.3923    1.8559 H         1 ATP         0.4587
     46 H46        -0.5835    4.6857   -1.9122 H         1 ATP         0.5254
@<TRIPOS>BOND
     1    1    2 2
     2    1    3 1
     3    1    4 1
     4    1    8 1
     5    4   32 1
     6    5    6 2
     7    5    7 1
     8    5    8 1
     9    5   12 1
    10    7   33 1
    11    9   10 2
    12    9   11 1
    13    9   12 1
    14    9   13 1
    15   13   14 1
    16   14   15 1
    17   14   34 1
    18   14   35 1
    19   15   16 1
    20   15   17 1
    21   15   36 1
    22   16   21 1
    23   17   18 1
    24   17   19 1
    25   17   37 1
    26   18   38 1
    27   19   20 1
    28   19   21 1
    29   19   39 1
    30   20   40 1
    31   21   22 1
    32   21   41 1
    33   22   23 ar
    34   22   31 ar
    35   23   24 ar
    36   23   42 1
    37   24   25 ar
    38   24   46 1
    39   25   26 ar
    40   25   31 ar
    41   26   27 2
    42   26   28 ar
    43   27   43 1
    44   28   29 ar
    45   28   45 1
    46   29   30 ar
    47   29   44 1
    48   30   31 ar
@<TRIPOS>SUBSTRUCTURE
     1 ATP         1 GROUP 0 A     ****
@<TRIPOS>MOLECULE
[[[3,4-dihydroxy-5-(6-imino-7,8-dihydro-1~{H}-purin-8-ylium-9-yl)tetrahydrofuran-2-yl]methoxy-oxido-phosphoryl]oxy-hydroxy-phosphoryl] hydrogen phosphate
   46    48     1     0     0
SMALL
USER_CHARGES

@<TRIPOS>ATOM
      1 PG         -1.3008    1.6430   -6.3139 P.3       1 ATP         1.5595
      2 O1G        -1.6091    2.6304   -5.2104 O.co2     1 ATP        -0.8438
      3 O2G        -2.3802    0.7464   -6.8780 O.co2     1 ATP        -0.8438
      4 O3G        -0.5981    2.4482   -7.5484 O.3       1 ATP        -0.7800
      5 PB          1.4397    1.1520   -5.3410 P.3       1 ATP         1.9223
      6 O1B         2.2459    1.9741   -6.3025 O.2       1 ATP        -0.8953
      7 O2B         1.1514    1.8538   -3.9135 O.3       1 ATP        -0.8165
      8 O3B        -0.0299    0.7260   -5.8622 O.3       1 ATP        -0.8247
      9 PA          3.4842   -0.6654   -4.2373 P.3       1 ATP         1.6157
     10 O1A         4.6104   -0.0320   -5.0250 O.co2     1 ATP        -0.8629
     11 O2A         3.4853   -2.1498   -3.9435 O.co2     1 ATP        -0.8629
     12 O3A         2.0649   -0.2850   -4.9494 O.3       1 ATP        -0.8191
     13 O5'         3.2903    0.1346   -2.8241 O.3       1 ATP        -0.5644
     14 C5'         2.2816   -0.2918   -1.9206 C.3       1 ATP         0.2062
     15 C4'         2.7248    0.0226   -0.4980 C.3       1 ATP         0.0971
     16 O4'         2.4697    1.4219   -0.2462 O.3       1 ATP        -0.3662
     17 C3'         1.9404   -0.7419    0.5596 C.3       1 ATP         0.0734
     18 O3'         2.7418   -0.8086    1.7389 O.3       1 ATP        -0.5671
     19 C2'         0.7477    0.1630    0.7858 C.3       1 ATP         0.0745
     20 O2'         0.1373   -0.0577    2.0407 O.3       1 ATP        -0.5794
     21 C1'         1.3733    1.5427    0.6747 C.3       1 ATP         0.3824
     22 N9          0.4520    2.5240    0.1767 N.pl3     1 ATP        -0.4324
     23 C8         -0.2004    2.4829   -0.9804 C.ar      1 ATP         0.2662
     24 N7         -0.9830    3.5431   -1.1568 N.pl3     1 ATP        -0.4772
     25 C5         -0.8095    4.3012   -0.0331 C.ar      1 ATP        -0.1305
     26 C6         -1.4065    5.5904    0.3585 C.ar      1 ATP         0.7186
     27 N6         -2.2501    6.2030   -0.4084 N.2       1 ATP        -0.8115
     28 N1         -0.9585    6.0272    1.5994 N.pl3     1 ATP        -0.8400
     29 C2         -0.0508    5.3009    2.3532 C.ar      1 ATP         0.6671
     30 N3          0.4890    4.1592    2.0257 N.2       1 ATP        -0.5806
     31 C4          0.0637    3.7006    0.7995 C.ar      1 ATP         0.2748
     32 HOG3       -0.3361    1.9421   -8.3467 H         1 ATP         0.4327
     33 HOB2        0.6600    2.7026   -3.8926 H         1 ATP         0.4701
     34 H5'1        1.3514    0.2330   -2.1577 H         1 ATP         0.0401
     35 H5'2        2.1280   -1.3678   -2.0460 H         1 ATP         0.0401
     36 H4'         3.8044   -0.1397   -0.4040 H         1 ATP         0.1136
     37 H3'         1.6764   -1.7639    0.2728 H         1 ATP         0.0693
     38 HO3'        2.2232   -1.2979    2.3953 H         1 ATP         0.4124
     39 H2'        -0.0011    0.0027    0.0003 H         1 ATP         0.0854
     40 HO2'       -0.6141    0.5574    2.1082 H         1 ATP         0.4367
     41 H1'         1.7826    1.9024    1.6451 H         1 ATP         0.1343
     42 H8         -0.1116    1.6863   -1.6984 H         1 ATP         0.3302
     43 HN62       -2.5420    7.0730    0.0447 H         1 ATP         0.4160
     44 H2          0.1969    5.7893    3.3086 H         1 ATP         0.0756
     45 H45        -1.3097    6.9080    1.9642 H         1 ATP         0.4587
     46 H46        -1.5735    3.7351   -1.9538 H         1 ATP         0.5254
@<TRIPOS>BOND
     1    1    2 2
     2    1    3 1
     3    1    4 1
     4    1    8 1
     5    4   32 1
     6    5    6 2
     7    5    7 1
     8    5    8 1
     9    5   12 1
    10    7   33 1
    11    9   10 2
    12    9   11 1
    13    9   12 1
    14    9   13 1
    15   13   14 1
    16   14   15 1
    17   14   34 1
    18   14   35 1
    19   15   16 1
    20   15   17 1
    21   15   36 1
    22   16   21 1
    23   17   18 1
    24   17   19 1
    25   17   37 1
    26   18   38 1
    27   19   20 1
    28   19   21 1
    29   19   39 1
    30   20   40 1
    31   21   22 1
    32   21   41 1
    33   22   23 ar
    34   22   31 ar
    35   23   24 ar
    36   23   42 1
    37   24   25 ar
    38   24   46 1
    39   25   26 ar
    40   25   31 ar
    41   26   27 2
    42   26   28 ar
    43   27   43 1
    44   28   29 ar
    45   28   45 1
    46   29   30 ar
    47   29   44 1
    48   30   31 ar
@<TRIPOS>SUBSTRUCTURE
     1 ATP         1 GROUP 0 A     ****
@<TRIPOS>MOLECULE
[[[3,4-dihydroxy-5-(6-imino-7,8-dihydro-1~{H}-purin-8-ylium-9-yl)tetrahydrofuran-2-yl]methoxy-oxido-phosphoryl]oxy-hydroxy-phosphoryl] hydrogen phosphate
   46    48     1     0     0
SMALL
USER_CHARGES

@<TRIPOS>ATOM
      1 PG          6.7355   -4.3348   -2.6998 P.3       1 ATP         1.5595
      2 O1G         7.1083   -5.5704   -3.4885 O.co2     1 ATP        -0.8438
      3 O2G         5.5293   -4.3301   -1.7875 O.co2     1 ATP        -0.8438
      4 O3G         8.0383   -3.8566   -1.8394 O.3       1 ATP        -0.7800
      5 PB          6.4221   -1.4926   -3.4221 P.3       1 ATP         1.9223
      6 O1B         7.4807   -0.8538   -2.5726 O.2       1 ATP        -0.8953
      7 O2B         6.2398   -0.8450   -4.8921 O.3       1 ATP        -0.8165
      8 O3B         6.6351   -3.0669   -3.7208 O.3       1 ATP        -0.8247
      9 PA          3.5300   -2.0728   -3.4114 P.3       1 ATP         1.6157
     10 O1A         3.6302   -3.5801   -3.5007 O.co2     1 ATP        -0.8629
     11 O2A         3.1559   -1.2493   -4.6246 O.co2     1 ATP        -0.8629
     12 O3A         4.9288   -1.4871   -2.8061 O.3       1 ATP        -0.8191
     13 O5'         2.5245   -1.6648   -2.1878 O.3       1 ATP        -0.5644
     14 C5'         2.2816   -0.2918   -1.9206 C.3       1 ATP         0.2062
     15 C4'         2.7248    0.0226   -0.4980 C.3       1 ATP         0.0971
     16 O4'         2.4697    1.4219   -0.2462 O.3       1 ATP        -0.3662
     17 C3'         1.9404   -0.7419    0.5596 C.3       1 ATP         0.0734
     18 O3'         2.7418   -0.8086    1.7389 O.3       1 ATP        -0.5671
     19 C2'         0.7477    0.1630    0.7858 C.3       1 ATP         0.0745
     20 O2'         0.1373   -0.0577    2.0407 O.3       1 ATP        -0.5794
     21 C1'         1.3733    1.5427    0.6747 C.3       1 ATP         0.3824
     22 N9          0.4520    2.5240    0.1767 N.pl3     1 ATP        -0.4324
     23 C8          0.2216    2.8192   -1.0985 C.ar      1 ATP         0.2662
     24 N7         -0.6906    3.7763   -1.2384 N.pl3     1 ATP        -0.4772
     25 C5         -1.0575    4.1037    0.0366 C.ar      1 ATP        -0.1305
     26 C6         -2.0291    5.0943    0.5330 C.ar      1 ATP         0.7186
     27 N6         -2.7093    5.8371   -0.2800 N.2       1 ATP        -0.8115
     28 N1         -2.1051    5.1136    1.9204 N.pl3     1 ATP        -0.8400
     29 C2         -1.3354    4.2774    2.7129 C.ar      1 ATP         0.6671
     30 N3         -0.4707    3.3945    2.2944 N.2       1 ATP        -0.5806
     31 C4         -0.3734    3.3525    0.9220 C.ar      1 ATP         0.2748
     32 HOG3        7.9560   -3.0612   -1.2712 H         1 ATP         0.4327
     33 HOB2        5.9940    0.1017   -4.9664 H         1 ATP         0.4701
     34 H5'1        2.8432    0.3119   -2.6398 H         1 ATP         0.0401
     35 H5'2        1.2128   -0.0927   -2.0428 H         1 ATP         0.0401
     36 H4'         3.8044   -0.1397   -0.4040 H         1 ATP         0.1136
     37 H3'         1.6764   -1.7639    0.2728 H         1 ATP         0.0693
     38 HO3'        2.2232   -1.2979    2.3953 H         1 ATP         0.4124
     39 H2'        -0.0011    0.0027    0.0003 H         1 ATP         0.0854
     40 HO2'       -0.1563   -0.9855    2.0596 H         1 ATP         0.4367
     41 H1'         1.7826    1.9024    1.6451 H         1 ATP         0.1343
     42 H8          0.7125    2.3429   -1.9292 H         1 ATP         0.3302
     43 HN62       -3.3217    6.4517    0.2629 H         1 ATP         0.4160
     44 H2         -1.5188    4.4223    3.7890 H         1 ATP         0.0756
     45 H45        -2.7470    5.7627    2.3665 H         1 ATP         0.4587
     46 H46        -1.0305    4.1680   -2.1054 H         1 ATP         0.5254
@<TRIPOS>BOND
     1    1    2 2
     2    1    3 1
     3    1    4 1
     4    1    8 1
     5    4   32 1
     6    5    6 2
     7    5    7 1
     8    5    8 1
     9    5   12 1
    10    7   33 1
    11    9   10 2
    12    9   11 1
    13    9   12 1
    14    9   13 1
    15   13   14 1
    16   14   15 1
    17   14   34 1
    18   14   35 1
    19   15   16 1
    20   15   17 1
    21   15   36 1
    22   16   21 1
    23   17   18 1
    24   17   19 1
    25   17   37 1
    26   18   38 1
    27   19   20 1
    28   19   21 1
    29   19   39 1
    30   20   40 1
    31   21   22 1
    32   21   41 1
    33   22   23 ar
    34   22   31 ar
    35   23   24 ar
    36   23   42 1
    37   24   25 ar
    38   24   46 1
    39   25   26 ar
    40   25   31 ar
    41   26   27 2
    42   26   28 ar
    43   27   43 1
    44   28   29 ar
    45   28   45 1
    46   29   30 ar
    47   29   44 1
    48   30   31 ar
@<TRIPOS>SUBSTRUCTURE
     1 ATP         1 GROUP 0 A     ****
@<TRIPOS>MOLECULE
[[[3,4-dihydroxy-5-(6-imino-7,8-dihydro-1~{H}-purin-8-ylium-9-yl)tetrahydrofuran-2-yl]methoxy-oxido-phosphoryl]oxy-hydroxy-phosphoryl] hydrogen phosphate
   46    48     1     0     0
SMALL
USER_CHARGES

@<TRIPOS>ATOM
      1 PG          3.8315    4.2649   -5.6117 P.3       1 ATP         1.5595
      2 O1G         4.5018    4.5606   -6.9349 O.co2     1 ATP        -0.8438
      3 O2G         4.5838    3.5726   -4.4972 O.co2     1 ATP        -0.8438
      4 O3G         3.2023    5.6539   -5.0277 O.3       1 ATP        -0.7800
      5 PB          1.2557    3.0281   -4.8813 P.3       1 ATP         1.9223
      6 O1B         0.5768    4.1596   -4.1677 O.2       1 ATP        -0.8953
      7 O2B         0.2855    2.1150   -5.7970 O.3       1 ATP        -0.8165
      8 O3B         2.4397    3.4624   -5.8925 O.3       1 ATP        -0.8247
      9 PA          2.8619    0.6169   -4.3269 P.3       1 ATP         1.6157
     10 O1A         4.0991    1.0216   -5.0986 O.co2     1 ATP        -0.8629
     11 O2A         1.8962   -0.4016   -4.8925 O.co2     1 ATP        -0.8629
     12 O3A         2.0200    1.9612   -3.9394 O.3       1 ATP        -0.8191
     13 O5'         3.2903    0.1346   -2.8241 O.3       1 ATP        -0.5644
     14 C5'         2.2816   -0.2918   -1.9206 C.3       1 ATP         0.2062
     15 C4'         2.7248    0.0226   -0.4980 C.3       1 ATP         0.0971
     16 O4'         2.4697    1.4219   -0.2462 O.3       1 ATP        -0.3662
     17 C3'         1.9404   -0.7419    0.5596 C.3       1 ATP         0.0734
     18 O3'         2.7418   -0.8086    1.7389 O.3       1 ATP        -0.5671
     19 C2'         0.7477    0.1630    0.7858 C.3       1 ATP         0.0745
     20 O2'         0.1373   -0.0577    2.0407 O.3       1 ATP        -0.5794
     21 C1'         1.3733    1.5427    0.6747 C.3       1 ATP         0.3824
     22 N9          0.4520    2.5240    0.1767 N.pl3     1 ATP        -0.4324
     23 C8          0.5691    3.2215   -0.9485 C.ar      1 ATP         0.2662
     24 N7         -0.4499    4.0551   -1.1342 N.pl3     1 ATP        -0.4772
     25 C5         -1.2618    3.8674   -0.0512 C.ar      1 ATP        -0.1305
     26 C6         -2.5420    4.5007    0.3120 C.ar      1 ATP         0.7186
     27 N6         -3.0874    5.3993   -0.4432 N.2       1 ATP        -0.8115
     28 N1         -3.0494    4.0205    1.5133 N.pl3     1 ATP        -0.8400
     29 C2         -2.3933    3.0527    2.2567 C.ar      1 ATP         0.6671
     30 N3         -1.2611    2.4796    1.9536 N.2       1 ATP        -0.5806
     31 C4         -0.7334    2.9358    0.7669 C.ar      1 ATP         0.2748
     32 HOG3        2.7305    5.6274   -4.1681 H         1 ATP         0.4327
     33 HOB2       -0.4645    1.6462   -5.3727 H         1 ATP         0.4701
     34 H5'1        1.3514    0.2330   -2.1577 H         1 ATP         0.0401
     35 H5'2        2.1280   -1.3678   -2.0460 H         1 ATP         0.0401
     36 H4'         3.8044   -0.1397   -0.4040 H         1 ATP         0.1136
     37 H3'         1.6764   -1.7639    0.2728 H         1 ATP         0.0693
     38 HO3'        2.2232   -1.2979    2.3953 H         1 ATP         0.4124
     39 H2'        -0.0011    0.0027    0.0003 H         1 ATP         0.0854
     40 HO2'        0.8082    0.1199    2.7232 H         1 ATP         0.4367
     41 H1'         1.7826    1.9024    1.6451 H         1 ATP         0.1343
     42 H8          1.3912    3.1285   -1.6365 H         1 ATP         0.3302
     43 HN62       -3.9637    5.7084   -0.0142 H         1 ATP         0.4160
     44 H2         -2.9317    2.7866    3.1796 H         1 ATP         0.0756
     45 H45        -3.9307    4.3923    1.8559 H         1 ATP         0.4587
     46 H46        -0.5835    4.6857   -1.9122 H         1 ATP         0.5254
@<TRIPOS>BOND
     1    1    2 2
     2    1    3 1
     3    1    4 1
     4    1    8 1
     5    4   32 1
     6    5    6 2
     7    5    7 1
     8    5    8 1
     9    5   12 1
    10    7   33 1
    11    9   10 2
    12    9   11 1
    13    9   12 1
    14    9   13 1
    15   13   14 1
    16   14   15 1
    17   14   34 1
    18   14   35 1
    19   15   16 1
    20   15   17 1
    21   15   36 1
    22   16   21 1
    23   17   18 1
    24   17   19 1
    25   17   37 1
    26   18   38 1
    27   19   20 1
    28   19   21 1
    29   19   39 1
    30   20   40 1
    31   21   22 1
    32   21   41 1
    33   22   23 ar
    34   22   31 ar
    35   23   24 ar
    36   23   42 1
    37   24   25 ar
    38   24   46 1
    39   25   26 ar
    40   25   31 ar
    41   26   27 2
    42   26   28 ar
    43   27   43 1
    44   28   29 ar
    45   28   45 1
    46   29   30 ar
    47   29   44 1
    48   30   31 ar
@<TRIPOS>SUBSTRUCTURE
     1 ATP         1 GROUP 0 A     ****
@<TRIPOS>MOLECULE
[[[3,4-dihydroxy-5-(6-imino-7,8-dihydro-1~{H}-purin-8-ylium-9-yl)tetrahydrofuran-2-yl]methoxy-oxido-phosphoryl]oxy-hydroxy-phosphoryl] hydrogen phosphate
   46    48     1     0     0
SMALL
USER_CHARGES

@<TRIPOS>ATOM
      1 PG          1.8732   -4.2648   -6.4728 P.3       1 ATP         1.5595
      2 O1G         0.5411   -4.6906   -7.0489 O.co2     1 ATP        -0.8438
      3 O2G         2.6402   -5.1716   -5.5364 O.co2     1 ATP        -0.8438
      4 O3G         2.8577   -3.8384   -7.7037 O.3       1 ATP        -0.7800
      5 PB          2.8071   -1.8047   -5.1411 P.3       1 ATP         1.9223
      6 O1B         3.5975   -2.3696   -3.9982 O.2       1 ATP        -0.8953
      7 O2B         3.6838   -1.3427   -6.4185 O.3       1 ATP        -0.8165
      8 O3B         1.7028   -2.8008   -5.7745 O.3       1 ATP        -0.8247
      9 PA          2.3334    0.9635   -4.2388 P.3       1 ATP         1.6157
     10 O1A         1.0794    1.7628   -3.9589 O.co2     1 ATP        -0.8629
     11 O2A         3.4182    1.5161   -5.1375 O.co2     1 ATP        -0.8629
     12 O3A         1.9049   -0.5092   -4.7989 O.3       1 ATP        -0.8191
     13 O5'         3.0213    0.5153   -2.8245 O.3       1 ATP        -0.5644
     14 C5'         2.2816   -0.2918   -1.9206 C.3       1 ATP         0.2062
     15 C4'         2.7248    0.0226   -0.4980 C.3       1 ATP         0.0971
     16 O4'         2.4697    1.4219   -0.2462 O.3       1 ATP        -0.3662
     17 C3'         1.9404   -0.7419    0.5596 C.3       1 ATP         0.0734
     18 O3'         2.7418   -0.8086    1.7389 O.3       1 ATP        -0.5671
     19 C2'         0.7477    0.1630    0.7858 C.3       1 ATP         0.0745
     20 O2'         0.1373   -0.0577    2.0407 O.3       1 ATP        -0.5794
     21 C1'         1.3733    1.5427    0.6747 C.3       1 ATP         0.3824
     22 N9          0.4520    2.5240    0.1767 N.pl3     1 ATP        -0.4324
     23 C8         -0.2004    2.4829   -0.9804 C.ar      1 ATP         0.2662
     24 N7         -0.9830    3.5431   -1.1568 N.pl3     1 ATP        -0.4772
     25 C5         -0.8095    4.3012   -0.0331 C.ar      1 ATP        -0.1305
     26 C6         -1.4065    5.5904    0.3585 C.ar      1 ATP         0.7186
     27 N6         -2.2501    6.2030   -0.4084 N.2       1 ATP        -0.8115
     28 N1         -0.9585    6.0272    1.5994 N.pl3     1 ATP        -0.8400
     29 C2         -0.0508    5.3009    2.3532 C.ar      1 ATP         0.6671
     30 N3          0.4890    4.1592    2.0257 N.2       1 ATP        -0.5806
     31 C4          0.0637    3.7006    0.7995 C.ar      1 ATP         0.2748
     32 HOG3        3.7662   -3.5358   -7.4913 H         1 ATP         0.4327
     33 HOB2        4.3654   -0.6473   -6.2998 H         1 ATP         0.4701
     34 H5'1        1.2163   -0.0770   -2.0471 H         1 ATP         0.0401
     35 H5'2        2.4655   -1.3443   -2.1563 H         1 ATP         0.0401
     36 H4'         3.8044   -0.1397   -0.4040 H         1 ATP         0.1136
     37 H3'         1.6764   -1.7639    0.2728 H         1 ATP         0.0693
     38 HO3'        3.5554   -1.2733    1.4914 H         1 ATP         0.4124
     39 H2'        -0.0011    0.0027    0.0003 H         1 ATP         0.0854
     40 HO2'       -0.1563   -0.9855    2.0596 H         1 ATP         0.4367
     41 H1'         1.7826    1.9024    1.6451 H         1 ATP         0.1343
     42 H8         -0.1116    1.6863   -1.6984 H         1 ATP         0.3302
     43 HN62       -2.5420    7.0730    0.0447 H         1 ATP         0.4160
     44 H2          0.1969    5.7893    3.3086 H         1 ATP         0.0756
     45 H45        -1.3097    6.9080    1.9642 H         1 ATP         0.4587
     46 H46        -1.5735    3.7351   -1.9538 H         1 ATP         0.5254
@<TRIPOS>BOND
     1    1    2 2
     2    1    3 1
     3    1    4 1
     4    1    8 1
     5    4   32 1
     6    5    6 2
     7    5    7 1
     8    5    8 1
     9    5   12 1
    10    7   33 1
    11    9   10 2
    12    9   11 1
    13    9   12 1
    14    9   13 1
    15   13   14 1
    16   14   15 1
    17   14   34 1
    18   14   35 1
    19   15   16 1
    20   15   17 1
    21   15   36 1
    22   16   21 1
    23   17   18 1
    24   17   19 1
    25   17   37 1
    26   18   38 1
    27   19   20 1
    28   19   21 1
    29   19   39 1
    30   20   40 1
    31   21   22 1
    32   21   41 1
    33   22   23 ar
    34   22   31 ar
    35   23   24 ar
    36   23   42 1
    37   24   25 ar
    38   24   46 1
    39   25   26 ar
    40   25   31 ar
    41   26   27 2
    42   26   28 ar
    43   27   43 1
    44   28   29 ar
    45   28   45 1
    46   29   30 ar
    47   29   44 1
    48   30   31 ar
@<TRIPOS>SUBSTRUCTURE
     1 ATP         1 GROUP 0 A     ****
@<TRIPOS>MOLECULE
[[[3,4-dihydroxy-5-(6-imino-7,8-dihydro-1~{H}-purin-8-ylium-9-yl)tetrahydrofuran-2-yl]methoxy-oxido-phosphoryl]oxy-hydroxy-phosphoryl] hydrogen phosphate
   46    48     1     0     0
SMALL
USER_CHARGES

@<TRIPOS>ATOM
      1 PG          8.0174    0.9413   -4.0474 P.3       1 ATP         1.5595
      2 O1G         8.0814    1.5786   -2.6772 O.co2     1 ATP        -0.8438
      3 O2G         8.2563    1.7595   -5.2968 O.co2     1 ATP        -0.8438
      4 O3G         9.0245   -0.3437   -4.0689 O.3       1 ATP        -0.7800
      5 PB          5.9205   -0.9718   -3.2467 P.3       1 ATP         1.9223
      6 O1B         6.7209   -2.2272   -3.0635 O.2       1 ATP        -0.8953
      7 O2B         5.5857   -0.1676   -1.8848 O.3       1 ATP        -0.8165
      8 O3B         6.6006    0.1470   -4.1948 O.3       1 ATP        -0.8247
      9 PA          3.3342   -0.0516   -4.3262 P.3       1 ATP         1.6157
     10 O1A         2.1153   -0.7748   -4.8565 O.co2     1 ATP        -0.8629
     11 O2A         3.9830    1.0583   -5.1244 O.co2     1 ATP        -0.8629
     12 O3A         4.4805   -1.1538   -3.9557 O.3       1 ATP        -0.8191
     13 O5'         3.0213    0.5153   -2.8245 O.3       1 ATP        -0.5644
     14 C5'         2.2816   -0.2918   -1.9206 C.3       1 ATP         0.2062
     15 C4'         2.7248    0.0226   -0.4980 C.3       1 ATP         0.0971
     16 O4'         2.4697    1.4219   -0.2462 O.3       1 ATP        -0.3662
     17 C3'         1.9404   -0.7419    0.5596 C.3       1 ATP         0.0734
     18 O3'         2.7418   -0.8086    1.7389 O.3       1 ATP        -0.5671
     19 C2'         0.7477    0.1630    0.7858 C.3       1 ATP         0.0745
     20 O2'         0.1373   -0.0577    2.0407 O.3       1 ATP        -0.5794
     21 C1'         1.3733    1.5427    0.6747 C.3       1 ATP         0.3824
     22 N9          0.4520    2.5240    0.1767 N.pl3     1 ATP        -0.4324
     23 C8         -0.2004    2.4829   -0.9804 C.ar      1 ATP         0.2662
     24 N7         -0.9830    3.5431   -1.1568 N.pl3     1 ATP        -0.4772
     25 C5         -0.8095    4.3012   -0.0331 C.ar      1 ATP        -0.1305
     26 C6         -1.4065    5.5904    0.3585 C.ar      1 ATP         0.7186
     27 N6         -2.2501    6.2030   -0.4084 N.2       1 ATP        -0.8115
     28 N1         -0.9585    6.0272    1.5994 N.pl3     1 ATP        -0.8400
     29 C2         -0.0508    5.3009    2.3532 C.ar      1 ATP         0.6671
     30 N3          0.4890    4.1592    2.0257 N.2       1 ATP        -0.5806
     31 C4          0.0637    3.7006    0.7995 C.ar      1 ATP         0.2748
     32 HOG3        9.0958   -0.8671   -4.8954 H         1 ATP         0.4327
     33 HOB2        6.3273    0.1615   -1.3335 H         1 ATP         0.4701
     34 H5'1        1.2163   -0.0770   -2.0471 H         1 ATP         0.0401
     35 H5'2        2.4655   -1.3443   -2.1563 H         1 ATP         0.0401
     36 H4'         3.8044   -0.1397   -0.4040 H         1 ATP         0.1136
     37 H3'         1.6764   -1.7639    0.2728 H         1 ATP         0.0693
     38 HO3'        2.2232   -1.2979    2.3953 H         1 ATP         0.4124
     39 H2'        -0.0011    0.0027    0.0003 H         1 ATP         0.0854
     40 HO2'       -0.6141    0.5574    2.1082 H         1 ATP         0.4367
     41 H1'         1.7826    1.9024    1.6451 H         1 ATP         0.1343
     42 H8         -0.1116    1.6863   -1.6984 H         1 ATP         0.3302
     43 HN62       -2.5420    7.0730    0.0447 H         1 ATP         0.4160
     44 H2          0.1969    5.7893    3.3086 H         1 ATP         0.0756
     45 H45        -1.3097    6.9080    1.9642 H         1 ATP         0.4587
     46 H46        -1.5735    3.7351   -1.9538 H         1 ATP         0.5254
@<TRIPOS>BOND
     1    1    2 2
     2    1    3 1
     3    1    4 1
     4    1    8 1
     5    4   32 1
     6    5    6 2
     7    5    7 1
     8    5    8 1
     9    5   12 1
    10    7   33 1
    11    9   10 2
    12    9   11 1
    13    9   12 1
    14    9   13 1
    15   13   14 1
    16   14   15 1
    17   14   34 1
    18   14   35 1
    19   15   16 1
    20   15   17 1
    21   15   36 1
    22   16   21 1
    23   17   18 1
    24   17   19 1
    25   17   37 1
    26   18   38 1
    27   19   20 1
    28   19   21 1
    29   19   39 1
    30   20   40 1
    31   21   22 1
    32   21   41 1
    33   22   23 ar
    34   22   31 ar
    35   23   24 ar
    36   23   42 1
    37   24   25 ar
    38   24   46 1
    39   25   26 ar
    40   25   31 ar
    41   26   27 2
    42   26   28 ar
    43   27   43 1
    44   28   29 ar
    45   28   45 1
    46   29   30 ar
    47   29   44 1
    48   30   31 ar
@<TRIPOS>SUBSTRUCTURE
     1 ATP         1 GROUP 0 A     ****
@<TRIPOS>MOLECULE
[[[3,4-dihydroxy-5-(6-imino-7,8-dihydro-1~{H}-purin-8-ylium-9-yl)tetrahydrofuran-2-yl]methoxy-oxido-phosphoryl]oxy-hydroxy-phosphoryl] hydrogen phosphate
   46    48     1     0     0
SMALL
USER_CHARGES

@<TRIPOS>ATOM
      1 PG         -1.9926   -0.9269   -4.2310 P.3       1 ATP         1.5595
      2 O1G        -0.7431   -0.1012   -4.0198 O.co2     1 ATP        -0.8438
      3 O2G        -3.2776   -0.5903   -3.5079 O.co2     1 ATP        -0.8438
      4 O3G        -2.3023   -0.9980   -5.8326 O.3       1 ATP        -0.7800
      5 PB         -1.2120   -3.2745   -2.6256 P.3       1 ATP         1.9223
      6 O1B        -2.2186   -3.2202   -1.5147 O.2       1 ATP        -0.8953
      7 O2B        -0.8368   -4.7610   -3.1384 O.3       1 ATP        -0.8165
      8 O3B        -1.6362   -2.4983   -3.9786 O.3       1 ATP        -0.8247
      9 PA          1.5543   -2.4556   -3.2404 P.3       1 ATP         1.6157
     10 O1A         1.2372   -1.5511   -4.4114 O.co2     1 ATP        -0.8629
     11 O2A         2.1275   -3.8380   -3.4641 O.co2     1 ATP        -0.8629
     12 O3A         0.2206   -2.5984   -2.3094 O.3       1 ATP        -0.8191
     13 O5'         2.5245   -1.6648   -2.1878 O.3       1 ATP        -0.5644
     14 C5'         2.2816   -0.2918   -1.9206 C.3       1 ATP         0.2062
     15 C4'         2.7248    0.0226   -0.4980 C.3       1 ATP         0.0971
     16 O4'         2.4697    1.4219   -0.2462 O.3       1 ATP        -0.3662
     17 C3'         1.9404   -0.7419    0.5596 C.3       1 ATP         0.0734
     18 O3'         2.7418   -0.8086    1.7389 O.3       1 ATP        -0.5671
     19 C2'         0.7477    0.1630    0.7858 C.3       1 ATP         0.0745
     20 O2'         0.1373   -0.0577    2.0407 O.3       1 ATP        -0.5794
     21 C1'         1.3733    1.5427    0.6747 C.3       1 ATP         0.3824
     22 N9          0.4520    2.5240    0.1767 N.pl3     1 ATP        -0.4324
     23 C8          0.2216    2.8192   -1.0985 C.ar      1 ATP         0.2662
     24 N7         -0.6906    3.7763   -1.2384 N.pl3     1 ATP        -0.4772
     25 C5         -1.0575    4.1037    0.0366 C.ar      1 ATP        -0.1305
     26 C6         -2.0291    5.0943    0.5330 C.ar      1 ATP         0.7186
     27 N6         -2.7093    5.8371   -0.2800 N.2       1 ATP        -0.8115
     28 N1         -2.1051    5.1136    1.9204 N.pl3     1 ATP        -0.8400
     29 C2         -1.3354    4.2774    2.7129 C.ar      1 ATP         0.6671
     30 N3         -0.4707    3.3945    2.2944 N.2       1 ATP        -0.5806
     31 C4         -0.3734    3.3525    0.9220 C.ar      1 ATP         0.2748
     32 HOG3       -3.0877   -1.5024   -6.1342 H         1 ATP         0.4327
     33 HOB2       -1.5477   -5.3313   -3.5012 H         1 ATP         0.4701
     34 H5'1        2.8432    0.3119   -2.6398 H         1 ATP         0.0401
     35 H5'2        1.2128   -0.0927   -2.0428 H         1 ATP         0.0401
     36 H4'         3.8044   -0.1397   -0.4040 H         1 ATP         0.1136
     37 H3'         1.6764   -1.7639    0.2728 H         1 ATP         0.0693
     38 HO3'        3.5554   -1.2733    1.4914 H         1 ATP         0.4124
     39 H2'        -0.0011    0.0027    0.0003 H         1 ATP         0.0854
     40 HO2'       -0.1563   -0.9855    2.0596 H         1 ATP         0.4367
     41 H1'         1.7826    1.9024    1.6451 H         1 ATP         0.1343
     42 H8          0.7125    2.3429   -1.9292 H         1 ATP         0.3302
     43 HN62       -3.3217    6.4517    0.2629 H         1 ATP         0.4160
     44 H2         -1.5188    4.4223    3.7890 H         1 ATP         0.0756
     45 H45        -2.7470    5.7627    2.3665 H         1 ATP         0.4587
     46 H46        -1.0305    4.1680   -2.1054 H         1 ATP         0.5254
@<TRIPOS>BOND
     1    1    2 2
     2    1    3 1
     3    1    4 1
     4    1    8 1
     5    4   32 1
     6    5    6 2
     7    5    7 1
     8    5    8 1
     9    5   12 1
    10    7   33 1
    11    9   10 2
    12    9   11 1
    13    9   12 1
    14    9   13 1
    15   13   14 1
    16   14   15 1
    17   14   34 1
    18   14   35 1
    19   15   16 1
    20   15   17 1
    21   15   36 1
    22   16   21 1
    23   17   18 1
    24   17   19 1
    25   17   37 1
    26   18   38 1
    27   19   20 1
    28   19   21 1
    29   19   39 1
    30   20   40 1
    31   21   22 1
    32   21   41 1
    33   22   23 ar
    34   22   31 ar
    35   23   24 ar
    36   23   42 1
    37   24   25 ar
    38   24   46 1
    39   25   26 ar
    40   25   31 ar
    41   26   27 2
    42   26   28 ar
    43   27   43 1
    44   28   29 ar
    45   28   45 1
    46   29   30 ar
    47   29   44 1
    48   30   31 ar
@<TRIPOS>SUBSTRUCTURE
     1 ATP         1 GROUP 0 A     ****
@<TRIPOS>MOLECULE
[[[3,4-dihydroxy-5-(6-imino-7,8-dihydro-1~{H}-purin-8-ylium-9-yl)tetrahydrofuran-2-yl]methoxy-oxido-phosphoryl]oxy-hydroxy-phosphoryl] hydrogen phosphate
   46    48     1     0     0
SMALL
USER_CHARGES

@<TRIPOS>ATOM
      1 PG         -2.0713   -5.3628    6.7110 P.3       1 ATP         1.5595
      2 O1G        -3.3610   -5.4338    7.4978 O.co2     1 ATP        -0.8438
      3 O2G        -1.8685   -4.3091    5.6451 O.co2     1 ATP        -0.8438
      4 O3G        -0.8257   -5.2817    7.7637 O.3       1 ATP        -0.7800
      5 PB         -0.4636   -7.3769    5.2769 P.3       1 ATP         1.9223
      6 O1B         0.8257   -7.3246    6.0419 O.2       1 ATP        -0.8953
      7 O2B        -0.9089   -8.8509    4.7842 O.3       1 ATP        -0.8165
      8 O3B        -1.7602   -6.8313    6.0732 O.3       1 ATP        -0.8247
      9 PA         -1.7207   -6.2768    2.8457 P.3       1 ATP         1.6157
     10 O1A        -2.8743   -5.5689    3.5224 O.co2     1 ATP        -0.8629
     11 O2A        -1.9358   -7.5875    2.1206 O.co2     1 ATP        -0.8629
     12 O3A        -0.5195   -6.4834    3.9322 O.3       1 ATP        -0.8191
     13 O5'        -0.9724   -5.2440    1.8220 O.3       1 ATP        -0.5644
     14 C5'        -0.7840   -3.8935    2.2172 C.3       1 ATP         0.2062
     15 C4'        -0.0724   -3.1466    1.1027 C.3       1 ATP         0.0971
     16 O4'        -0.8674   -3.1929   -0.0945 O.3       1 ATP        -0.3662
     17 C3'         0.1338   -1.6715    1.4027 C.3       1 ATP         0.0734
     18 O3'         1.2893   -1.4445    2.1808 O.3       1 ATP        -0.5671
     19 C2'         0.2158   -1.0724    0.0128 C.3       1 ATP         0.0745
     20 O2'         1.5141   -1.2448   -0.5513 O.3       1 ATP        -0.5794
     21 C1'        -0.7897   -1.9176   -0.7583 C.3       1 ATP         0.3824
     22 N9         -2.1040   -1.3333   -0.7704 N.pl3     1 ATP        -0.4324
     23 C8         -3.0590   -1.5123    0.1363 C.ar      1 ATP         0.2662
     24 N7         -4.1655   -0.8354   -0.1554 N.pl3     1 ATP        -0.4772
     25 C5         -3.8852   -0.1874   -1.3253 C.ar      1 ATP        -0.1305
     26 C6         -4.7113    0.7160   -2.1458 C.ar      1 ATP         0.7186
     27 N6         -5.9213    1.0209   -1.8021 N.2       1 ATP        -0.8115
     28 N1         -4.0411    1.1673   -3.2764 N.pl3     1 ATP        -0.8400
     29 C2         -2.7403    0.7865   -3.5638 C.ar      1 ATP         0.6671
     30 N3         -1.9921   -0.0108   -2.8519 N.2       1 ATP        -0.5806
     31 C4         -2.6302   -0.4747   -1.7239 C.ar      1 ATP         0.2748
     32 HOG3        0.0858   -5.2302    7.4051 H         1 ATP         0.4327
     33 HOB2       -0.3145   -9.3505    4.1847 H         1 ATP         0.4701
     34 H5'1       -1.7618   -3.4448    2.4164 H         1 ATP         0.0401
     35 H5'2       -0.1874   -3.8744    3.1341 H         1 ATP         0.0401
     36 H4'         0.8874   -3.6466    0.8805 H         1 ATP         0.1136
     37 H3'        -0.7376   -1.2333    1.9867 H         1 ATP         0.0693
     38 HO3'        1.3408   -0.4870    2.3219 H         1 ATP         0.4124
     39 H2'        -0.0384   -0.0310    0.0096 H         1 ATP         0.0854
     40 HO2'        2.1463   -0.7958    0.0370 H         1 ATP         0.4367
     41 H1'        -0.4769   -2.1002   -1.8093 H         1 ATP         0.1343
     42 H8         -2.9569   -2.1323    1.0098 H         1 ATP         0.3302
     43 HN62       -6.3169    1.6552   -2.5012 H         1 ATP         0.4160
     44 H2         -2.3612    1.2343   -4.4957 H         1 ATP         0.0756
     45 H45        -4.5223    1.7976   -3.9117 H         1 ATP         0.4587
     46 H46        -5.0218   -0.8132    0.3804 H         1 ATP         0.5254
@<TRIPOS>BOND
     1    1    2 2
     2    1    3 1
     3    1    4 1
     4    1    8 1
     5    4   32 1
     6    5    6 2
     7    5    7 1
     8    5    8 1
     9    5   12 1
    10    7   33 1
    11    9   10 2
    12    9   11 1
    13    9   12 1
    14    9   13 1
    15   13   14 1
    16   14   15 1
    17   14   34 1
    18   14   35 1
    19   15   16 1
    20   15   17 1
    21   15   36 1
    22   16   21 1
    23   17   18 1
    24   17   19 1
    25   17   37 1
    26   18   38 1
    27   19   20 1
    28   19   21 1
    29   19   39 1
    30   20   40 1
    31   21   22 1
    32   21   41 1
    33   22   23 ar
    34   22   31 ar
    35   23   24 ar
    36   23   42 1
    37   24   25 ar
    38   24   46 1
    39   25   26 ar
    40   25   31 ar
    41   26   27 2
    42   26   28 ar
    43   27   43 1
    44   28   29 ar
    45   28   45 1
    46   29   30 ar
    47   29   44 1
    48   30   31 ar
@<TRIPOS>SUBSTRUCTURE
     1 ATP         1 GROUP 0 A     ****
@<TRIPOS>MOLECULE
[[[3,4-dihydroxy-5-(6-imino-7,8-dihydro-1~{H}-purin-8-ylium-9-yl)tetrahydrofuran-2-yl]methoxy-oxido-phosphoryl]oxy-hydroxy-phosphoryl] hydrogen phosphate
   46    48     1     0     0
SMALL
USER_CHARGES

@<TRIPOS>ATOM
      1 PG          8.0174    0.9413   -4.0474 P.3       1 ATP         1.5595
      2 O1G         8.0955    2.0063   -5.1186 O.co2     1 ATP        -0.8438
      3 O2G         9.1315   -0.0661   -3.8707 O.co2     1 ATP        -0.8438
      4 O3G         7.7442    1.6694   -2.6117 O.3       1 ATP        -0.7800
      5 PB          5.9205   -0.9718   -3.2467 P.3       1 ATP         1.9223
      6 O1B         6.7209   -2.2272   -3.0635 O.2       1 ATP        -0.8953
      7 O2B         5.5857   -0.1676   -1.8848 O.3       1 ATP        -0.8165
      8 O3B         6.6006    0.1470   -4.1948 O.3       1 ATP        -0.8247
      9 PA          3.3342   -0.0516   -4.3262 P.3       1 ATP         1.6157
     10 O1A         2.1153   -0.7748   -4.8565 O.co2     1 ATP        -0.8629
     11 O2A         3.9830    1.0583   -5.1244 O.co2     1 ATP        -0.8629
     12 O3A         4.4805   -1.1538   -3.9557 O.3       1 ATP        -0.8191
     13 O5'         3.0213    0.5153   -2.8245 O.3       1 ATP        -0.5644
     14 C5'         2.2816   -0.2918   -1.9206 C.3       1 ATP         0.2062
     15 C4'         2.7248    0.0226   -0.4980 C.3       1 ATP         0.0971
     16 O4'         2.4697    1.4219   -0.2462 O.3       1 ATP        -0.3662
     17 C3'         1.9404   -0.7419    0.5596 C.3       1 ATP         0.0734
     18 O3'         2.7418   -0.8086    1.7389 O.3       1 ATP        -0.5671
     19 C2'         0.7477    0.1630    0.7858 C.3       1 ATP         0.0745
     20 O2'         0.1373   -0.0577    2.0407 O.3       1 ATP        -0.5794
     21 C1'         1.3733    1.5427    0.6747 C.3       1 ATP         0.3824
     22 N9          0.4520    2.5240    0.1767 N.pl3     1 ATP        -0.4324
     23 C8          0.2216    2.8192   -1.0985 C.ar      1 ATP         0.2662
     24 N7         -0.6906    3.7763   -1.2384 N.pl3     1 ATP        -0.4772
     25 C5         -1.0575    4.1037    0.0366 C.ar      1 ATP        -0.1305
     26 C6         -2.0291    5.0943    0.5330 C.ar      1 ATP         0.7186
     27 N6         -2.7093    5.8371   -0.2800 N.2       1 ATP        -0.8115
     28 N1         -2.1051    5.1136    1.9204 N.pl3     1 ATP        -0.8400
     29 C2         -1.3354    4.2774    2.7129 C.ar      1 ATP         0.6671
     30 N3         -0.4707    3.3945    2.2944 N.2       1 ATP        -0.5806
     31 C4         -0.3734    3.3525    0.9220 C.ar      1 ATP         0.2748
     32 HOG3        6.9289    2.2047   -2.5075 H         1 ATP         0.4327
     33 HOB2        6.3273    0.1615   -1.3335 H         1 ATP         0.4701
     34 H5'1        1.2163   -0.0770   -2.0471 H         1 ATP         0.0401
     35 H5'2        2.4655   -1.3443   -2.1563 H         1 ATP         0.0401
     36 H4'         3.8044   -0.1397   -0.4040 H         1 ATP         0.1136
     37 H3'         1.6764   -1.7639    0.2728 H         1 ATP         0.0693
     38 HO3'        2.2232   -1.2979    2.3953 H         1 ATP         0.4124
     39 H2'        -0.0011    0.0027    0.0003 H         1 ATP         0.0854
     40 HO2'       -0.1563   -0.9855    2.0596 H         1 ATP         0.4367
     41 H1'         1.7826    1.9024    1.6451 H         1 ATP         0.1343
     42 H8          0.7125    2.3429   -1.9292 H         1 ATP         0.3302
     43 HN62       -3.3217    6.4517    0.2629 H         1 ATP         0.4160
     44 H2         -1.5188    4.4223    3.7890 H         1 ATP         0.0756
     45 H45        -2.7470    5.7627    2.3665 H         1 ATP         0.4587
     46 H46        -1.0305    4.1680   -2.1054 H         1 ATP         0.5254
@<TRIPOS>BOND
     1    1    2 2
     2    1    3 1
     3    1    4 1
     4    1    8 1
     5    4   32 1
     6    5    6 2
     7    5    7 1
     8    5    8 1
     9    5   12 1
    10    7   33 1
    11    9   10 2
    12    9   11 1
    13    9   12 1
    14    9   13 1
    15   13   14 1
    16   14   15 1
    17   14   34 1
    18   14   35 1
    19   15   16 1
    20   15   17 1
    21   15   36 1
    22   16   21 1
    23   17   18 1
    24   17   19 1
    25   17   37 1
    26   18   38 1
    27   19   20 1
    28   19   21 1
    29   19   39 1
    30   20   40 1
    31   21   22 1
    32   21   41 1
    33   22   23 ar
    34   22   31 ar
    35   23   24 ar
    36   23   42 1
    37   24   25 ar
    38   24   46 1
    39   25   26 ar
    40   25   31 ar
    41   26   27 2
    42   26   28 ar
    43   27   43 1
    44   28   29 ar
    45   28   45 1
    46   29   30 ar
    47   29   44 1
    48   30   31 ar
@<TRIPOS>SUBSTRUCTURE
     1 ATP         1 GROUP 0 A     ****
@<TRIPOS>MOLECULE
[[[3,4-dihydroxy-5-(6-imino-7,8-dihydro-1~{H}-purin-8-ylium-9-yl)tetrahydrofuran-2-yl]methoxy-oxido-phosphoryl]oxy-hydroxy-phosphoryl] hydrogen phosphate
   46    48     1     0     0
SMALL
USER_CHARGES

@<TRIPOS>ATOM
      1 PG          4.7366   -3.8098   -6.2421 P.3       1 ATP         1.5595
      2 O1G         5.3678   -3.2058   -7.4767 O.co2     1 ATP        -0.8438
      3 O2G         3.2474   -4.0660   -6.1770 O.co2     1 ATP        -0.8438
      4 O3G         5.5176   -5.1991   -5.8875 O.3       1 ATP        -0.7800
      5 PB          4.8246   -1.4165   -4.5208 P.3       1 ATP         1.9223
      6 O1B         5.4287   -0.9490   -3.2298 O.2       1 ATP        -0.8953
      7 O2B         5.2380   -0.5528   -5.8234 O.3       1 ATP        -0.8165
      8 O3B         5.1833   -2.9361   -4.9393 O.3       1 ATP        -0.8247
      9 PA          2.1371   -2.2715   -3.6563 P.3       1 ATP         1.6157
     10 O1A         2.4857   -3.7434   -3.7019 O.co2     1 ATP        -0.8629
     11 O2A         0.7457   -1.7949   -4.0121 O.co2     1 ATP        -0.8629
     12 O3A         3.2103   -1.4478   -4.5705 O.3       1 ATP        -0.8191
     13 O5'         2.5245   -1.6648   -2.1878 O.3       1 ATP        -0.5644
     14 C5'         2.2816   -0.2918   -1.9206 C.3       1 ATP         0.2062
     15 C4'         2.7248    0.0226   -0.4980 C.3       1 ATP         0.0971
     16 O4'         2.4697    1.4219   -0.2462 O.3       1 ATP        -0.3662
     17 C3'         1.9404   -0.7419    0.5596 C.3       1 ATP         0.0734
     18 O3'         2.7418   -0.8086    1.7389 O.3       1 ATP        -0.5671
     19 C2'         0.7477    0.1630    0.7858 C.3       1 ATP         0.0745
     20 O2'         0.1373   -0.0577    2.0407 O.3       1 ATP        -0.5794
     21 C1'         1.3733    1.5427    0.6747 C.3       1 ATP         0.3824
     22 N9          0.4520    2.5240    0.1767 N.pl3     1 ATP        -0.4324
     23 C8         -0.2004    2.4829   -0.9804 C.ar      1 ATP         0.2662
     24 N7         -0.9830    3.5431   -1.1568 N.pl3     1 ATP        -0.4772
     25 C5         -0.8095    4.3012   -0.0331 C.ar      1 ATP        -0.1305
     26 C6         -1.4065    5.5904    0.3585 C.ar      1 ATP         0.7186
     27 N6         -2.2501    6.2030   -0.4084 N.2       1 ATP        -0.8115
     28 N1         -0.9585    6.0272    1.5994 N.pl3     1 ATP        -0.8400
     29 C2         -0.0508    5.3009    2.3532 C.ar      1 ATP         0.6671
     30 N3          0.4890    4.1592    2.0257 N.2       1 ATP        -0.5806
     31 C4          0.0637    3.7006    0.7995 C.ar      1 ATP         0.2748
     32 HOG3        5.2230   -5.7139   -5.1062 H         1 ATP         0.4327
     33 HOB2        5.0180    0.4029   -5.8485 H         1 ATP         0.4701
     34 H5'1        2.8432    0.3119   -2.6398 H         1 ATP         0.0401
     35 H5'2        1.2128   -0.0927   -2.0428 H         1 ATP         0.0401
     36 H4'         3.8044   -0.1397   -0.4040 H         1 ATP         0.1136
     37 H3'         1.6764   -1.7639    0.2728 H         1 ATP         0.0693
     38 HO3'        3.5554   -1.2733    1.4914 H         1 ATP         0.4124
     39 H2'        -0.0011    0.0027    0.0003 H         1 ATP         0.0854
     40 HO2'       -0.1563   -0.9855    2.0596 H         1 ATP         0.4367
     41 H1'         1.7826    1.9024    1.6451 H         1 ATP         0.1343
     42 H8         -0.1116    1.6863   -1.6984 H         1 ATP         0.3302
     43 HN62       -2.5420    7.0730    0.0447 H         1 ATP         0.4160
     44 H2          0.1969    5.7893    3.3086 H         1 ATP         0.0756
     45 H45        -1.3097    6.9080    1.9642 H         1 ATP         0.4587
     46 H46        -1.5735    3.7351   -1.9538 H         1 ATP         0.5254
@<TRIPOS>BOND
     1    1    2 2
     2    1    3 1
     3    1    4 1
     4    1    8 1
     5    4   32 1
     6    5    6 2
     7    5    7 1
     8    5    8 1
     9    5   12 1
    10    7   33 1
    11    9   10 2
    12    9   11 1
    13    9   12 1
    14    9   13 1
    15   13   14 1
    16   14   15 1
    17   14   34 1
    18   14   35 1
    19   15   16 1
    20   15   17 1
    21   15   36 1
    22   16   21 1
    23   17   18 1
    24   17   19 1
    25   17   37 1
    26   18   38 1
    27   19   20 1
    28   19   21 1
    29   19   39 1
    30   20   40 1
    31   21   22 1
    32   21   41 1
    33   22   23 ar
    34   22   31 ar
    35   23   24 ar
    36   23   42 1
    37   24   25 ar
    38   24   46 1
    39   25   26 ar
    40   25   31 ar
    41   26   27 2
    42   26   28 ar
    43   27   43 1
    44   28   29 ar
    45   28   45 1
    46   29   30 ar
    47   29   44 1
    48   30   31 ar
@<TRIPOS>SUBSTRUCTURE
     1 ATP         1 GROUP 0 A     ****
@<TRIPOS>MOLECULE
[[[3,4-dihydroxy-5-(6-imino-7,8-dihydro-1~{H}-purin-8-ylium-9-yl)tetrahydrofuran-2-yl]methoxy-oxido-phosphoryl]oxy-hydroxy-phosphoryl] hydrogen phosphate
   46    48     1     0     0
SMALL
USER_CHARGES

@<TRIPOS>ATOM
      1 PG          5.7978   -0.1000   -6.9445 P.3       1 ATP         1.5595
      2 O1G         4.4276    0.3882   -7.3592 O.co2     1 ATP        -0.8438
      3 O2G         6.4569   -1.2609   -7.6554 O.co2     1 ATP        -0.8438
      4 O3G         6.8262    1.1682   -6.9592 O.3       1 ATP        -0.7800
      5 PB          5.0039   -1.5143   -4.4813 P.3       1 ATP         1.9223
      6 O1B         5.3206   -2.9355   -4.8419 O.2       1 ATP        -0.8953
      7 O2B         5.3162   -1.1106   -2.9474 O.3       1 ATP        -0.8165
      8 O3B         5.7907   -0.3935   -5.3402 O.3       1 ATP        -0.8247
      9 PA          2.7406    0.3767   -4.4296 P.3       1 ATP         1.6157
     10 O1A         1.2546    0.2225   -4.6703 O.co2     1 ATP        -0.8629
     11 O2A         3.5320    1.4518   -5.1421 O.co2     1 ATP        -0.8629
     12 O3A         3.4692   -1.0595   -4.6990 O.3       1 ATP        -0.8191
     13 O5'         3.0213    0.5153   -2.8245 O.3       1 ATP        -0.5644
     14 C5'         2.2816   -0.2918   -1.9206 C.3       1 ATP         0.2062
     15 C4'         2.7248    0.0226   -0.4980 C.3       1 ATP         0.0971
     16 O4'         2.4697    1.4219   -0.2462 O.3       1 ATP        -0.3662
     17 C3'         1.9404   -0.7419    0.5596 C.3       1 ATP         0.0734
     18 O3'         2.7418   -0.8086    1.7389 O.3       1 ATP        -0.5671
     19 C2'         0.7477    0.1630    0.7858 C.3       1 ATP         0.0745
     20 O2'         0.1373   -0.0577    2.0407 O.3       1 ATP        -0.5794
     21 C1'         1.3733    1.5427    0.6747 C.3       1 ATP         0.3824
     22 N9          0.4520    2.5240    0.1767 N.pl3     1 ATP        -0.4324
     23 C8         -0.2004    2.4829   -0.9804 C.ar      1 ATP         0.2662
     24 N7         -0.9830    3.5431   -1.1568 N.pl3     1 ATP        -0.4772
     25 C5         -0.8095    4.3012   -0.0331 C.ar      1 ATP        -0.1305
     26 C6         -1.4065    5.5904    0.3585 C.ar      1 ATP         0.7186
     27 N6         -2.2501    6.2030   -0.4084 N.2       1 ATP        -0.8115
     28 N1         -0.9585    6.0272    1.5994 N.pl3     1 ATP        -0.8400
     29 C2         -0.0508    5.3009    2.3532 C.ar      1 ATP         0.6671
     30 N3          0.4890    4.1592    2.0257 N.2       1 ATP        -0.5806
     31 C4          0.0637    3.7006    0.7995 C.ar      1 ATP         0.2748
     32 HOG3        7.7625    1.0127   -6.7113 H         1 ATP         0.4327
     33 HOB2        6.2355   -1.1883   -2.6140 H         1 ATP         0.4701
     34 H5'1        1.2163   -0.0770   -2.0471 H         1 ATP         0.0401
     35 H5'2        2.4655   -1.3443   -2.1563 H         1 ATP         0.0401
     36 H4'         3.8044   -0.1397   -0.4040 H         1 ATP         0.1136
     37 H3'         1.6764   -1.7639    0.2728 H         1 ATP         0.0693
     38 HO3'        3.5554   -1.2733    1.4914 H         1 ATP         0.4124
     39 H2'        -0.0011    0.0027    0.0003 H         1 ATP         0.0854
     40 HO2'       -0.1563   -0.9855    2.0596 H         1 ATP         0.4367
     41 H1'         1.7826    1.9024    1.6451 H         1 ATP         0.1343
     42 H8         -0.1116    1.6863   -1.6984 H         1 ATP         0.3302
     43 HN62       -2.5420    7.0730    0.0447 H         1 ATP         0.4160
     44 H2          0.1969    5.7893    3.3086 H         1 ATP         0.0756
     45 H45        -1.3097    6.9080    1.9642 H         1 ATP         0.4587
     46 H46        -1.5735    3.7351   -1.9538 H         1 ATP         0.5254
@<TRIPOS>BOND
     1    1    2 2
     2    1    3 1
     3    1    4 1
     4    1    8 1
     5    4   32 1
     6    5    6 2
     7    5    7 1
     8    5    8 1
     9    5   12 1
    10    7   33 1
    11    9   10 2
    12    9   11 1
    13    9   12 1
    14    9   13 1
    15   13   14 1
    16   14   15 1
    17   14   34 1
    18   14   35 1
    19   15   16 1
    20   15   17 1
    21   15   36 1
    22   16   21 1
    23   17   18 1
    24   17   19 1
    25   17   37 1
    26   18   38 1
    27   19   20 1
    28   19   21 1
    29   19   39 1
    30   20   40 1
    31   21   22 1
    32   21   41 1
    33   22   23 ar
    34   22   31 ar
    35   23   24 ar
    36   23   42 1
    37   24   25 ar
    38   24   46 1
    39   25   26 ar
    40   25   31 ar
    41   26   27 2
    42   26   28 ar
    43   27   43 1
    44   28   29 ar
    45   28   45 1
    46   29   30 ar
    47   29   44 1
    48   30   31 ar
@<TRIPOS>SUBSTRUCTURE
     1 ATP         1 GROUP 0 A     ****
@<TRIPOS>MOLECULE
[[[3,4-dihydroxy-5-(6-imino-7,8-dihydro-1~{H}-purin-8-ylium-9-yl)tetrahydrofuran-2-yl]methoxy-oxido-phosphoryl]oxy-hydroxy-phosphoryl] hydrogen phosphate
   46    48     1     0     0
SMALL
USER_CHARGES

@<TRIPOS>ATOM
      1 PG         -1.3008    1.6430   -6.3139 P.3       1 ATP         1.5595
      2 O1G        -0.9450    2.3810   -7.5853 O.co2     1 ATP        -0.8438
      3 O2G        -1.8273    2.3855   -5.1060 O.co2     1 ATP        -0.8438
      4 O3G        -2.3489    0.4472   -6.6848 O.3       1 ATP        -0.7800
      5 PB          1.4397    1.1520   -5.3410 P.3       1 ATP         1.9223
      6 O1B         2.2459    1.9741   -6.3025 O.2       1 ATP        -0.8953
      7 O2B         1.1514    1.8538   -3.9135 O.3       1 ATP        -0.8165
      8 O3B        -0.0299    0.7260   -5.8622 O.3       1 ATP        -0.8247
      9 PA          3.4842   -0.6654   -4.2373 P.3       1 ATP         1.6157
     10 O1A         4.6104   -0.0320   -5.0250 O.co2     1 ATP        -0.8629
     11 O2A         3.4853   -2.1498   -3.9435 O.co2     1 ATP        -0.8629
     12 O3A         2.0649   -0.2850   -4.9494 O.3       1 ATP        -0.8191
     13 O5'         3.2903    0.1346   -2.8241 O.3       1 ATP        -0.5644
     14 C5'         2.2816   -0.2918   -1.9206 C.3       1 ATP         0.2062
     15 C4'         2.7248    0.0226   -0.4980 C.3       1 ATP         0.0971
     16 O4'         2.4697    1.4219   -0.2462 O.3       1 ATP        -0.3662
     17 C3'         1.9404   -0.7419    0.5596 C.3       1 ATP         0.0734
     18 O3'         2.7418   -0.8086    1.7389 O.3       1 ATP        -0.5671
     19 C2'         0.7477    0.1630    0.7858 C.3       1 ATP         0.0745
     20 O2'         0.1373   -0.0577    2.0407 O.3       1 ATP        -0.5794
     21 C1'         1.3733    1.5427    0.6747 C.3       1 ATP         0.3824
     22 N9          0.4520    2.5240    0.1767 N.pl3     1 ATP        -0.4324
     23 C8          0.5691    3.2215   -0.9485 C.ar      1 ATP         0.2662
     24 N7         -0.4499    4.0551   -1.1342 N.pl3     1 ATP        -0.4772
     25 C5         -1.2618    3.8674   -0.0512 C.ar      1 ATP        -0.1305
     26 C6         -2.5420    4.5007    0.3120 C.ar      1 ATP         0.7186
     27 N6         -3.0874    5.3993   -0.4432 N.2       1 ATP        -0.8115
     28 N1         -3.0494    4.0205    1.5133 N.pl3     1 ATP        -0.8400
     29 C2         -2.3933    3.0527    2.2567 C.ar      1 ATP         0.6671
     30 N3         -1.2611    2.4796    1.9536 N.2       1 ATP        -0.5806
     31 C4         -0.7334    2.9358    0.7669 C.ar      1 ATP         0.2748
     32 HOG3       -2.6772   -0.1270   -5.9604 H         1 ATP         0.4327
     33 HOB2        1.9114    2.1111   -3.3491 H         1 ATP         0.4701
     34 H5'1        1.3514    0.2330   -2.1577 H         1 ATP         0.0401
     35 H5'2        2.1280   -1.3678   -2.0460 H         1 ATP         0.0401
     36 H4'         3.8044   -0.1397   -0.4040 H         1 ATP         0.1136
     37 H3'         1.6764   -1.7639    0.2728 H         1 ATP         0.0693
     38 HO3'        2.2232   -1.2979    2.3953 H         1 ATP         0.4124
     39 H2'        -0.0011    0.0027    0.0003 H         1 ATP         0.0854
     40 HO2'       -0.1563   -0.9855    2.0596 H         1 ATP         0.4367
     41 H1'         1.7826    1.9024    1.6451 H         1 ATP         0.1343
     42 H8          1.3912    3.1285   -1.6365 H         1 ATP         0.3302
     43 HN62       -3.9637    5.7084   -0.0142 H         1 ATP         0.4160
     44 H2         -2.9317    2.7866    3.1796 H         1 ATP         0.0756
     45 H45        -3.9307    4.3923    1.8559 H         1 ATP         0.4587
     46 H46        -0.5835    4.6857   -1.9122 H         1 ATP         0.5254
@<TRIPOS>BOND
     1    1    2 2
     2    1    3 1
     3    1    4 1
     4    1    8 1
     5    4   32 1
     6    5    6 2
     7    5    7 1
     8    5    8 1
     9    5   12 1
    10    7   33 1
    11    9   10 2
    12    9   11 1
    13    9   12 1
    14    9   13 1
    15   13   14 1
    16   14   15 1
    17   14   34 1
    18   14   35 1
    19   15   16 1
    20   15   17 1
    21   15   36 1
    22   16   21 1
    23   17   18 1
    24   17   19 1
    25   17   37 1
    26   18   38 1
    27   19   20 1
    28   19   21 1
    29   19   39 1
    30   20   40 1
    31   21   22 1
    32   21   41 1
    33   22   23 ar
    34   22   31 ar
    35   23   24 ar
    36   23   42 1
    37   24   25 ar
    38   24   46 1
    39   25   26 ar
    40   25   31 ar
    41   26   27 2
    42   26   28 ar
    43   27   43 1
    44   28   29 ar
    45   28   45 1
    46   29   30 ar
    47   29   44 1
    48   30   31 ar
@<TRIPOS>SUBSTRUCTURE
     1 ATP         1 GROUP 0 A     ****
@<TRIPOS>MOLECULE
[[[3,4-dihydroxy-5-(6-imino-7,8-dihydro-1~{H}-purin-8-ylium-9-yl)tetrahydrofuran-2-yl]methoxy-oxido-phosphoryl]oxy-hydroxy-phosphoryl] hydrogen phosphate
   46    48     1     0     0
SMALL
USER_CHARGES

@<TRIPOS>ATOM
      1 PG          6.3318    0.6039   -4.5291 P.3       1 ATP         1.5595
      2 O1G         7.8011    0.7830   -4.2182 O.co2     1 ATP        -0.8438
      3 O2G         5.2723    0.9767   -3.5162 O.co2     1 ATP        -0.8438
      4 O3G         6.0014    1.3720   -5.9316 O.3       1 ATP        -0.7800
      5 PB          4.7537   -1.6365   -5.6192 P.3       1 ATP         1.9223
      6 O1B         4.2240   -1.0348   -6.8872 O.2       1 ATP        -0.8953
      7 O2B         5.1635   -3.1971   -5.7201 O.3       1 ATP        -0.8165
      8 O3B         6.0795   -0.9301   -5.0225 O.3       1 ATP        -0.8247
      9 PA          3.9668   -2.1113   -2.8163 P.3       1 ATP         1.6157
     10 O1A         5.0717   -1.3104   -2.1623 O.co2     1 ATP        -0.8629
     11 O2A         4.0213   -3.6232   -2.8462 O.co2     1 ATP        -0.8629
     12 O3A         3.7625   -1.5756   -4.3451 O.3       1 ATP        -0.8191
     13 O5'         2.5245   -1.6648   -2.1878 O.3       1 ATP        -0.5644
     14 C5'         2.2816   -0.2918   -1.9206 C.3       1 ATP         0.2062
     15 C4'         2.7248    0.0226   -0.4980 C.3       1 ATP         0.0971
     16 O4'         2.4697    1.4219   -0.2462 O.3       1 ATP        -0.3662
     17 C3'         1.9404   -0.7419    0.5596 C.3       1 ATP         0.0734
     18 O3'         2.7418   -0.8086    1.7389 O.3       1 ATP        -0.5671
     19 C2'         0.7477    0.1630    0.7858 C.3       1 ATP         0.0745
     20 O2'         0.1373   -0.0577    2.0407 O.3       1 ATP        -0.5794
     21 C1'         1.3733    1.5427    0.6747 C.3       1 ATP         0.3824
     22 N9          0.4520    2.5240    0.1767 N.pl3     1 ATP        -0.4324
     23 C8          0.2216    2.8192   -1.0985 C.ar      1 ATP         0.2662
     24 N7         -0.6906    3.7763   -1.2384 N.pl3     1 ATP        -0.4772
     25 C5         -1.0575    4.1037    0.0366 C.ar      1 ATP        -0.1305
     26 C6         -2.0291    5.0943    0.5330 C.ar      1 ATP         0.7186
     27 N6         -2.7093    5.8371   -0.2800 N.2       1 ATP        -0.8115
     28 N1         -2.1051    5.1136    1.9204 N.pl3     1 ATP        -0.8400
     29 C2         -1.3354    4.2774    2.7129 C.ar      1 ATP         0.6671
     30 N3         -0.4707    3.3945    2.2944 N.2       1 ATP        -0.5806
     31 C4         -0.3734    3.3525    0.9220 C.ar      1 ATP         0.2748
     32 HOG3        5.0816    1.3480   -6.2714 H         1 ATP         0.4327
     33 HOB2        4.4770   -3.8530   -5.9666 H         1 ATP         0.4701
     34 H5'1        2.8432    0.3119   -2.6398 H         1 ATP         0.0401
     35 H5'2        1.2128   -0.0927   -2.0428 H         1 ATP         0.0401
     36 H4'         3.8044   -0.1397   -0.4040 H         1 ATP         0.1136
     37 H3'         1.6764   -1.7639    0.2728 H         1 ATP         0.0693
     38 HO3'        3.5554   -1.2733    1.4914 H         1 ATP         0.4124
     39 H2'        -0.0011    0.0027    0.0003 H         1 ATP         0.0854
     40 HO2'       -0.6141    0.5574    2.1082 H         1 ATP         0.4367
     41 H1'         1.7826    1.9024    1.6451 H         1 ATP         0.1343
     42 H8          0.7125    2.3429   -1.9292 H         1 ATP         0.3302
     43 HN62       -3.3217    6.4517    0.2629 H         1 ATP         0.4160
     44 H2         -1.5188    4.4223    3.7890 H         1 ATP         0.0756
     45 H45        -2.7470    5.7627    2.3665 H         1 ATP         0.4587
     46 H46        -1.0305    4.1680   -2.1054 H         1 ATP         0.5254
@<TRIPOS>BOND
     1    1    2 2
     2    1    3 1
     3    1    4 1
     4    1    8 1
     5    4   32 1
     6    5    6 2
     7    5    7 1
     8    5    8 1
     9    5   12 1
    10    7   33 1
    11    9   10 2
    12    9   11 1
    13    9   12 1
    14    9   13 1
    15   13   14 1
    16   14   15 1
    17   14   34 1
    18   14   35 1
    19   15   16 1
    20   15   17 1
    21   15   36 1
    22   16   21 1
    23   17   18 1
    24   17   19 1
    25   17   37 1
    26   18   38 1
    27   19   20 1
    28   19   21 1
    29   19   39 1
    30   20   40 1
    31   21   22 1
    32   21   41 1
    33   22   23 ar
    34   22   31 ar
    35   23   24 ar
    36   23   42 1
    37   24   25 ar
    38   24   46 1
    39   25   26 ar
    40   25   31 ar
    41   26   27 2
    42   26   28 ar
    43   27   43 1
    44   28   29 ar
    45   28   45 1
    46   29   30 ar
    47   29   44 1
    48   30   31 ar
@<TRIPOS>SUBSTRUCTURE
     1 ATP         1 GROUP 0 A     ****
@<TRIPOS>MOLECULE
[[[3,4-dihydroxy-5-(6-imino-7,8-dihydro-1~{H}-purin-8-ylium-9-yl)tetrahydrofuran-2-yl]methoxy-oxido-phosphoryl]oxy-hydroxy-phosphoryl] hydrogen phosphate
   46    48     1     0     0
SMALL
USER_CHARGES

@<TRIPOS>ATOM
      1 PG         -4.3703   -5.5641    5.1081 P.3       1 ATP         1.5595
      2 O1G        -4.8707   -6.9266    5.5336 O.co2     1 ATP        -0.8438
      3 O2G        -3.7066   -5.3652    3.7637 O.co2     1 ATP        -0.8438
      4 O3G        -5.5977   -4.4958    5.2434 O.3       1 ATP        -0.7800
      5 PB         -2.7103   -3.5159    6.4297 P.3       1 ATP         1.9223
      6 O1B        -3.6658   -2.3616    6.4997 O.2       1 ATP        -0.8953
      7 O2B        -1.7431   -3.6837    7.7142 O.3       1 ATP        -0.8165
      8 O3B        -3.3971   -4.9709    6.2747 O.3       1 ATP        -0.8247
      9 PA         -0.5251   -4.5707    4.7523 P.3       1 ATP         1.6157
     10 O1A        -1.1708   -5.8915    4.3939 O.co2     1 ATP        -0.8629
     11 O2A         0.5743   -4.5036    5.7899 O.co2     1 ATP        -0.8629
     12 O3A        -1.6935   -3.5111    5.1745 O.3       1 ATP        -0.8191
     13 O5'         0.0118   -3.8395    3.3916 O.3       1 ATP        -0.5644
     14 C5'        -0.7840   -3.8935    2.2172 C.3       1 ATP         0.2062
     15 C4'        -0.0724   -3.1466    1.1027 C.3       1 ATP         0.0971
     16 O4'        -0.8674   -3.1929   -0.0945 O.3       1 ATP        -0.3662
     17 C3'         0.1338   -1.6715    1.4027 C.3       1 ATP         0.0734
     18 O3'         1.2893   -1.4445    2.1808 O.3       1 ATP        -0.5671
     19 C2'         0.2158   -1.0724    0.0128 C.3       1 ATP         0.0745
     20 O2'         1.5141   -1.2448   -0.5513 O.3       1 ATP        -0.5794
     21 C1'        -0.7897   -1.9176   -0.7583 C.3       1 ATP         0.3824
     22 N9         -2.1040   -1.3333   -0.7704 N.pl3     1 ATP        -0.4324
     23 C8         -3.0590   -1.5123    0.1363 C.ar      1 ATP         0.2662
     24 N7         -4.1655   -0.8354   -0.1554 N.pl3     1 ATP        -0.4772
     25 C5         -3.8852   -0.1874   -1.3253 C.ar      1 ATP        -0.1305
     26 C6         -4.7113    0.7160   -2.1458 C.ar      1 ATP         0.7186
     27 N6         -5.9213    1.0209   -1.8021 N.2       1 ATP        -0.8115
     28 N1         -4.0411    1.1673   -3.2764 N.pl3     1 ATP        -0.8400
     29 C2         -2.7403    0.7865   -3.5638 C.ar      1 ATP         0.6671
     30 N3         -1.9921   -0.0108   -2.8519 N.2       1 ATP        -0.5806
     31 C4         -2.6302   -0.4747   -1.7239 C.ar      1 ATP         0.2748
     32 HOG3       -5.4305   -3.5598    5.0022 H         1 ATP         0.4327
     33 HOB2       -1.1350   -2.9507    7.9494 H         1 ATP         0.4701
     34 H5'1       -0.9348   -4.9415    1.9415 H         1 ATP         0.0401
     35 H5'2       -1.7548   -3.4350    2.4278 H         1 ATP         0.0401
     36 H4'         0.8874   -3.6466    0.8805 H         1 ATP         0.1136
     37 H3'        -0.7376   -1.2333    1.9867 H         1 ATP         0.0693
     38 HO3'        1.1626   -1.9325    3.0084 H         1 ATP         0.4124
     39 H2'        -0.0384   -0.0310    0.0096 H         1 ATP         0.0854
     40 HO2'        2.1463   -0.7958    0.0370 H         1 ATP         0.4367
     41 H1'        -0.4769   -2.1002   -1.8093 H         1 ATP         0.1343
     42 H8         -2.9569   -2.1323    1.0098 H         1 ATP         0.3302
     43 HN62       -6.3169    1.6552   -2.5012 H         1 ATP         0.4160
     44 H2         -2.3612    1.2343   -4.4957 H         1 ATP         0.0756
     45 H45        -4.5223    1.7976   -3.9117 H         1 ATP         0.4587
     46 H46        -5.0218   -0.8132    0.3804 H         1 ATP         0.5254
@<TRIPOS>BOND
     1    1    2 2
     2    1    3 1
     3    1    4 1
     4    1    8 1
     5    4   32 1
     6    5    6 2
     7    5    7 1
     8    5    8 1
     9    5   12 1
    10    7   33 1
    11    9   10 2
    12    9   11 1
    13    9   12 1
    14    9   13 1
    15   13   14 1
    16   14   15 1
    17   14   34 1
    18   14   35 1
    19   15   16 1
    20   15   17 1
    21   15   36 1
    22   16   21 1
    23   17   18 1
    24   17   19 1
    25   17   37 1
    26   18   38 1
    27   19   20 1
    28   19   21 1
    29   19   39 1
    30   20   40 1
    31   21   22 1
    32   21   41 1
    33   22   23 ar
    34   22   31 ar
    35   23   24 ar
    36   23   42 1
    37   24   25 ar
    38   24   46 1
    39   25   26 ar
    40   25   31 ar
    41   26   27 2
    42   26   28 ar
    43   27   43 1
    44   28   29 ar
    45   28   45 1
    46   29   30 ar
    47   29   44 1
    48   30   31 ar
@<TRIPOS>SUBSTRUCTURE
     1 ATP         1 GROUP 0 A     ****
@<TRIPOS>MOLECULE
[[[3,4-dihydroxy-5-(6-imino-7,8-dihydro-1~{H}-purin-8-ylium-9-yl)tetrahydrofuran-2-yl]methoxy-oxido-phosphoryl]oxy-hydroxy-phosphoryl] hydrogen phosphate
   46    48     1     0     0
SMALL
USER_CHARGES

@<TRIPOS>ATOM
      1 PG          2.7907   -4.7654   -3.7538 P.3       1 ATP         1.5595
      2 O1G         2.4408   -5.5724   -4.9843 O.co2     1 ATP        -0.8438
      3 O2G         1.9065   -3.6281   -3.2932 O.co2     1 ATP        -0.8438
      4 O3G         3.0061   -5.7936   -2.5037 O.3       1 ATP        -0.7800
      5 PB          5.2647   -3.4496   -2.8342 P.3       1 ATP         1.9223
      6 O1B         5.5377   -4.1921   -1.5597 O.2       1 ATP        -0.8953
      7 O2B         6.5764   -3.0637   -3.6969 O.3       1 ATP        -0.8165
      8 O3B         4.3228   -4.2243   -3.8951 O.3       1 ATP        -0.8247
      9 PA          4.0008   -0.9665   -3.8026 P.3       1 ATP         1.6157
     10 O1A         2.9520   -1.6091   -4.6841 O.co2     1 ATP        -0.8629
     11 O2A         5.2365   -0.3346   -4.4057 O.co2     1 ATP        -0.8629
     12 O3A         4.4765   -2.0485   -2.6761 O.3       1 ATP        -0.8191
     13 O5'         3.2903    0.1346   -2.8241 O.3       1 ATP        -0.5644
     14 C5'         2.2816   -0.2918   -1.9206 C.3       1 ATP         0.2062
     15 C4'         2.7248    0.0226   -0.4980 C.3       1 ATP         0.0971
     16 O4'         2.4697    1.4219   -0.2462 O.3       1 ATP        -0.3662
     17 C3'         1.9404   -0.7419    0.5596 C.3       1 ATP         0.0734
     18 O3'         2.7418   -0.8086    1.7389 O.3       1 ATP        -0.5671
     19 C2'         0.7477    0.1630    0.7858 C.3       1 ATP         0.0745
     20 O2'         0.1373   -0.0577    2.0407 O.3       1 ATP        -0.5794
     21 C1'         1.3733    1.5427    0.6747 C.3       1 ATP         0.3824
     22 N9          0.4520    2.5240    0.1767 N.pl3     1 ATP        -0.4324
     23 C8          0.2216    2.8192   -1.0985 C.ar      1 ATP         0.2662
     24 N7         -0.6906    3.7763   -1.2384 N.pl3     1 ATP        -0.4772
     25 C5         -1.0575    4.1037    0.0366 C.ar      1 ATP        -0.1305
     26 C6         -2.0291    5.0943    0.5330 C.ar      1 ATP         0.7186
     27 N6         -2.7093    5.8371   -0.2800 N.2       1 ATP        -0.8115
     28 N1         -2.1051    5.1136    1.9204 N.pl3     1 ATP        -0.8400
     29 C2         -1.3354    4.2774    2.7129 C.ar      1 ATP         0.6671
     30 N3         -0.4707    3.3945    2.2944 N.2       1 ATP        -0.5806
     31 C4         -0.3734    3.3525    0.9220 C.ar      1 ATP         0.2748
     32 HOG3        3.2400   -5.4203   -1.6273 H         1 ATP         0.4327
     33 HOB2        7.2610   -2.4914   -3.2893 H         1 ATP         0.4701
     34 H5'1        1.3514    0.2330   -2.1577 H         1 ATP         0.0401
     35 H5'2        2.1280   -1.3678   -2.0460 H         1 ATP         0.0401
     36 H4'         3.8044   -0.1397   -0.4040 H         1 ATP         0.1136
     37 H3'         1.6764   -1.7639    0.2728 H         1 ATP         0.0693
     38 HO3'        3.5554   -1.2733    1.4914 H         1 ATP         0.4124
     39 H2'        -0.0011    0.0027    0.0003 H         1 ATP         0.0854
     40 HO2'       -0.6141    0.5574    2.1082 H         1 ATP         0.4367
     41 H1'         1.7826    1.9024    1.6451 H         1 ATP         0.1343
     42 H8          0.7125    2.3429   -1.9292 H         1 ATP         0.3302
     43 HN62       -3.3217    6.4517    0.2629 H         1 ATP         0.4160
     44 H2         -1.5188    4.4223    3.7890 H         1 ATP         0.0756
     45 H45        -2.7470    5.7627    2.3665 H         1 ATP         0.4587
     46 H46        -1.0305    4.1680   -2.1054 H         1 ATP         0.5254
@<TRIPOS>BOND
     1    1    2 2
     2    1    3 1
     3    1    4 1
     4    1    8 1
     5    4   32 1
     6    5    6 2
     7    5    7 1
     8    5    8 1
     9    5   12 1
    10    7   33 1
    11    9   10 2
    12    9   11 1
    13    9   12 1
    14    9   13 1
    15   13   14 1
    16   14   15 1
    17   14   34 1
    18   14   35 1
    19   15   16 1
    20   15   17 1
    21   15   36 1
    22   16   21 1
    23   17   18 1
    24   17   19 1
    25   17   37 1
    26   18   38 1
    27   19   20 1
    28   19   21 1
    29   19   39 1
    30   20   40 1
    31   21   22 1
    32   21   41 1
    33   22   23 ar
    34   22   31 ar
    35   23   24 ar
    36   23   42 1
    37   24   25 ar
    38   24   46 1
    39   25   26 ar
    40   25   31 ar
    41   26   27 2
    42   26   28 ar
    43   27   43 1
    44   28   29 ar
    45   28   45 1
    46   29   30 ar
    47   29   44 1
    48   30   31 ar
@<TRIPOS>SUBSTRUCTURE
     1 ATP         1 GROUP 0 A     ****
@<TRIPOS>MOLECULE
[[[3,4-dihydroxy-5-(6-imino-7,8-dihydro-1~{H}-purin-8-ylium-9-yl)tetrahydrofuran-2-yl]methoxy-oxido-phosphoryl]oxy-hydroxy-phosphoryl] hydrogen phosphate
   46    48     1     0     0
SMALL
USER_CHARGES

@<TRIPOS>ATOM
      1 PG          3.3755    0.5708   -7.8240 P.3       1 ATP         1.5595
      2 O1G         4.4678    0.9553   -8.7970 O.co2     1 ATP        -0.8438
      3 O2G         2.9372    1.5216   -6.7325 O.co2     1 ATP        -0.8438
      4 O3G         2.0585    0.1173   -8.6761 O.3       1 ATP        -0.7800
      5 PB          2.8856   -1.8264   -6.1775 P.3       1 ATP         1.9223
      6 O1B         1.5806   -2.3083   -6.7387 O.2       1 ATP        -0.8953
      7 O2B         3.9277   -2.9925   -5.7677 O.3       1 ATP        -0.8165
      8 O3B         3.7460   -0.8705   -7.1566 O.3       1 ATP        -0.8247
      9 PA          3.9552   -0.2066   -3.9564 P.3       1 ATP         1.6157
     10 O1A         4.6399    0.8510   -4.7947 O.co2     1 ATP        -0.8629
     11 O2A         4.7577   -1.2974   -3.2811 O.co2     1 ATP        -0.8629
     12 O3A         2.7844   -0.9106   -4.8506 O.3       1 ATP        -0.8191
     13 O5'         3.0213    0.5153   -2.8245 O.3       1 ATP        -0.5644
     14 C5'         2.2816   -0.2918   -1.9206 C.3       1 ATP         0.2062
     15 C4'         2.7248    0.0226   -0.4980 C.3       1 ATP         0.0971
     16 O4'         2.4697    1.4219   -0.2462 O.3       1 ATP        -0.3662
     17 C3'         1.9404   -0.7419    0.5596 C.3       1 ATP         0.0734
     18 O3'         2.7418   -0.8086    1.7389 O.3       1 ATP        -0.5671
     19 C2'         0.7477    0.1630    0.7858 C.3       1 ATP         0.0745
     20 O2'         0.1373   -0.0577    2.0407 O.3       1 ATP        -0.5794
     21 C1'         1.3733    1.5427    0.6747 C.3       1 ATP         0.3824
     22 N9          0.4520    2.5240    0.1767 N.pl3     1 ATP        -0.4324
     23 C8         -0.2004    2.4829   -0.9804 C.ar      1 ATP         0.2662
     24 N7         -0.9830    3.5431   -1.1568 N.pl3     1 ATP        -0.4772
     25 C5         -0.8095    4.3012   -0.0331 C.ar      1 ATP        -0.1305
     26 C6         -1.4065    5.5904    0.3585 C.ar      1 ATP         0.7186
     27 N6         -2.2501    6.2030   -0.4084 N.2       1 ATP        -0.8115
     28 N1         -0.9585    6.0272    1.5994 N.pl3     1 ATP        -0.8400
     29 C2         -0.0508    5.3009    2.3532 C.ar      1 ATP         0.6671
     30 N3          0.4890    4.1592    2.0257 N.2       1 ATP        -0.5806
     31 C4          0.0637    3.7006    0.7995 C.ar      1 ATP         0.2748
     32 HOG3        1.2579   -0.1634   -8.1837 H         1 ATP         0.4327
     33 HOB2        3.6624   -3.6489   -5.0888 H         1 ATP         0.4701
     34 H5'1        1.2163   -0.0770   -2.0471 H         1 ATP         0.0401
     35 H5'2        2.4655   -1.3443   -2.1563 H         1 ATP         0.0401
     36 H4'         3.8044   -0.1397   -0.4040 H         1 ATP         0.1136
     37 H3'         1.6764   -1.7639    0.2728 H         1 ATP         0.0693
     38 HO3'        2.2232   -1.2979    2.3953 H         1 ATP         0.4124
     39 H2'        -0.0011    0.0027    0.0003 H         1 ATP         0.0854
     40 HO2'       -0.6141    0.5574    2.1082 H         1 ATP         0.4367
     41 H1'         1.7826    1.9024    1.6451 H         1 ATP         0.1343
     42 H8         -0.1116    1.6863   -1.6984 H         1 ATP         0.3302
     43 HN62       -2.5420    7.0730    0.0447 H         1 ATP         0.4160
     44 H2          0.1969    5.7893    3.3086 H         1 ATP         0.0756
     45 H45        -1.3097    6.9080    1.9642 H         1 ATP         0.4587
     46 H46        -1.5735    3.7351   -1.9538 H         1 ATP         0.5254
@<TRIPOS>BOND
     1    1    2 2
     2    1    3 1
     3    1    4 1
     4    1    8 1
     5    4   32 1
     6    5    6 2
     7    5    7 1
     8    5    8 1
     9    5   12 1
    10    7   33 1
    11    9   10 2
    12    9   11 1
    13    9   12 1
    14    9   13 1
    15   13   14 1
    16   14   15 1
    17   14   34 1
    18   14   35 1
    19   15   16 1
    20   15   17 1
    21   15   36 1
    22   16   21 1
    23   17   18 1
    24   17   19 1
    25   17   37 1
    26   18   38 1
    27   19   20 1
    28   19   21 1
    29   19   39 1
    30   20   40 1
    31   21   22 1
    32   21   41 1
    33   22   23 ar
    34   22   31 ar
    35   23   24 ar
    36   23   42 1
    37   24   25 ar
    38   24   46 1
    39   25   26 ar
    40   25   31 ar
    41   26   27 2
    42   26   28 ar
    43   27   43 1
    44   28   29 ar
    45   28   45 1
    46   29   30 ar
    47   29   44 1
    48   30   31 ar
@<TRIPOS>SUBSTRUCTURE
     1 ATP         1 GROUP 0 A     ****
@<TRIPOS>MOLECULE
[[[3,4-dihydroxy-5-(6-imino-7,8-dihydro-1~{H}-purin-8-ylium-9-yl)tetrahydrofuran-2-yl]methoxy-oxido-phosphoryl]oxy-hydroxy-phosphoryl] hydrogen phosphate
   46    48     1     0     0
SMALL
USER_CHARGES

@<TRIPOS>ATOM
      1 PG          0.8798   -5.1886   -5.3407 P.3       1 ATP         1.5595
      2 O1G         1.0125   -6.6295   -4.9007 O.co2     1 ATP        -0.8438
      3 O2G         2.0128   -4.4872   -6.0561 O.co2     1 ATP        -0.8438
      4 O3G        -0.4720   -5.0453   -6.2453 O.3       1 ATP        -0.7800
      5 PB         -0.0162   -2.7318   -3.9770 P.3       1 ATP         1.9223
      6 O1B        -1.2108   -2.3551   -4.8025 O.2       1 ATP        -0.8953
      7 O2B        -0.1675   -2.4633   -2.3900 O.3       1 ATP        -0.8165
      8 O3B         0.4182   -4.2864   -4.0627 O.3       1 ATP        -0.8247
      9 PA          2.8603   -2.1314   -3.7189 P.3       1 ATP         1.6157
     10 O1A         3.7693   -1.1113   -4.3692 O.co2     1 ATP        -0.8629
     11 O2A         3.2353   -3.5972   -3.6945 O.co2     1 ATP        -0.8629
     12 O3A         1.3676   -1.9951   -4.3666 O.3       1 ATP        -0.8191
     13 O5'         2.5245   -1.6648   -2.1878 O.3       1 ATP        -0.5644
     14 C5'         2.2816   -0.2918   -1.9206 C.3       1 ATP         0.2062
     15 C4'         2.7248    0.0226   -0.4980 C.3       1 ATP         0.0971
     16 O4'         2.4697    1.4219   -0.2462 O.3       1 ATP        -0.3662
     17 C3'         1.9404   -0.7419    0.5596 C.3       1 ATP         0.0734
     18 O3'         2.7418   -0.8086    1.7389 O.3       1 ATP        -0.5671
     19 C2'         0.7477    0.1630    0.7858 C.3       1 ATP         0.0745
     20 O2'         0.1373   -0.0577    2.0407 O.3       1 ATP        -0.5794
     21 C1'         1.3733    1.5427    0.6747 C.3       1 ATP         0.3824
     22 N9          0.4520    2.5240    0.1767 N.pl3     1 ATP        -0.4324
     23 C8         -0.2004    2.4829   -0.9804 C.ar      1 ATP         0.2662
     24 N7         -0.9830    3.5431   -1.1568 N.pl3     1 ATP        -0.4772
     25 C5         -0.8095    4.3012   -0.0331 C.ar      1 ATP        -0.1305
     26 C6         -1.4065    5.5904    0.3585 C.ar      1 ATP         0.7186
     27 N6         -2.2501    6.2030   -0.4084 N.2       1 ATP        -0.8115
     28 N1         -0.9585    6.0272    1.5994 N.pl3     1 ATP        -0.8400
     29 C2         -0.0508    5.3009    2.3532 C.ar      1 ATP         0.6671
     30 N3          0.4890    4.1592    2.0257 N.2       1 ATP        -0.5806
     31 C4          0.0637    3.7006    0.7995 C.ar      1 ATP         0.2748
     32 HOG3       -0.6992   -4.1629   -6.6086 H         1 ATP         0.4327
     33 HOB2       -0.8855   -2.9160   -1.8985 H         1 ATP         0.4701
     34 H5'1        2.8432    0.3119   -2.6398 H         1 ATP         0.0401
     35 H5'2        1.2128   -0.0927   -2.0428 H         1 ATP         0.0401
     36 H4'         3.8044   -0.1397   -0.4040 H         1 ATP         0.1136
     37 H3'         1.6764   -1.7639    0.2728 H         1 ATP         0.0693
     38 HO3'        2.2232   -1.2979    2.3953 H         1 ATP         0.4124
     39 H2'        -0.0011    0.0027    0.0003 H         1 ATP         0.0854
     40 HO2'       -0.6141    0.5574    2.1082 H         1 ATP         0.4367
     41 H1'         1.7826    1.9024    1.6451 H         1 ATP         0.1343
     42 H8         -0.1116    1.6863   -1.6984 H         1 ATP         0.3302
     43 HN62       -2.5420    7.0730    0.0447 H         1 ATP         0.4160
     44 H2          0.1969    5.7893    3.3086 H         1 ATP         0.0756
     45 H45        -1.3097    6.9080    1.9642 H         1 ATP         0.4587
     46 H46        -1.5735    3.7351   -1.9538 H         1 ATP         0.5254
@<TRIPOS>BOND
     1    1    2 2
     2    1    3 1
     3    1    4 1
     4    1    8 1
     5    4   32 1
     6    5    6 2
     7    5    7 1
     8    5    8 1
     9    5   12 1
    10    7   33 1
    11    9   10 2
    12    9   11 1
    13    9   12 1
    14    9   13 1
    15   13   14 1
    16   14   15 1
    17   14   34 1
    18   14   35 1
    19   15   16 1
    20   15   17 1
    21   15   36 1
    22   16   21 1
    23   17   18 1
    24   17   19 1
    25   17   37 1
    26   18   38 1
    27   19   20 1
    28   19   21 1
    29   19   39 1
    30   20   40 1
    31   21   22 1
    32   21   41 1
    33   22   23 ar
    34   22   31 ar
    35   23   24 ar
    36   23   42 1
    37   24   25 ar
    38   24   46 1
    39   25   26 ar
    40   25   31 ar
    41   26   27 2
    42   26   28 ar
    43   27   43 1
    44   28   29 ar
    45   28   45 1
    46   29   30 ar
    47   29   44 1
    48   30   31 ar
@<TRIPOS>SUBSTRUCTURE
     1 ATP         1 GROUP 0 A     ****
@<TRIPOS>MOLECULE
[[[3,4-dihydroxy-5-(6-imino-7,8-dihydro-1~{H}-purin-8-ylium-9-yl)tetrahydrofuran-2-yl]methoxy-oxido-phosphoryl]oxy-hydroxy-phosphoryl] hydrogen phosphate
   46    48     1     0     0
SMALL
USER_CHARGES

@<TRIPOS>ATOM
      1 PG          3.8310   -0.9274   -7.7749 P.3       1 ATP         1.5595
      2 O1G         2.9711   -1.7261   -8.7290 O.co2     1 ATP        -0.8438
      3 O2G         4.8676   -1.6071   -6.9083 O.co2     1 ATP        -0.8438
      4 O3G         4.5600    0.2697   -8.6126 O.3       1 ATP        -0.7800
      5 PB          1.7982   -0.4434   -5.6937 P.3       1 ATP         1.9223
      6 O1B         1.0829    0.6935   -5.0258 O.2       1 ATP        -0.8953
      7 O2B         0.8417   -1.5068   -6.4472 O.3       1 ATP        -0.8165
      8 O3B         2.8642   -0.0144   -6.8306 O.3       1 ATP        -0.8247
      9 PA          4.0008   -0.9665   -3.8026 P.3       1 ATP         1.6157
     10 O1A         5.0349   -0.2794   -4.6679 O.co2     1 ATP        -0.8629
     11 O2A         4.3698   -2.1727   -2.9668 O.co2     1 ATP        -0.8629
     12 O3A         2.7156   -1.3594   -4.7300 O.3       1 ATP        -0.8191
     13 O5'         3.2903    0.1346   -2.8241 O.3       1 ATP        -0.5644
     14 C5'         2.2816   -0.2918   -1.9206 C.3       1 ATP         0.2062
     15 C4'         2.7248    0.0226   -0.4980 C.3       1 ATP         0.0971
     16 O4'         2.4697    1.4219   -0.2462 O.3       1 ATP        -0.3662
     17 C3'         1.9404   -0.7419    0.5596 C.3       1 ATP         0.0734
     18 O3'         2.7418   -0.8086    1.7389 O.3       1 ATP        -0.5671
     19 C2'         0.7477    0.1630    0.7858 C.3       1 ATP         0.0745
     20 O2'         0.1373   -0.0577    2.0407 O.3       1 ATP        -0.5794
     21 C1'         1.3733    1.5427    0.6747 C.3       1 ATP         0.3824
     22 N9          0.4520    2.5240    0.1767 N.pl3     1 ATP        -0.4324
     23 C8          0.2216    2.8192   -1.0985 C.ar      1 ATP         0.2662
     24 N7         -0.6906    3.7763   -1.2384 N.pl3     1 ATP        -0.4772
     25 C5         -1.0575    4.1037    0.0366 C.ar      1 ATP        -0.1305
     26 C6         -2.0291    5.0943    0.5330 C.ar      1 ATP         0.7186
     27 N6         -2.7093    5.8371   -0.2800 N.2       1 ATP        -0.8115
     28 N1         -2.1051    5.1136    1.9204 N.pl3     1 ATP        -0.8400
     29 C2         -1.3354    4.2774    2.7129 C.ar      1 ATP         0.6671
     30 N3         -0.4707    3.3945    2.2944 N.2       1 ATP        -0.5806
     31 C4         -0.3734    3.3525    0.9220 C.ar      1 ATP         0.2748
     32 HOG3        5.1567    0.8806   -8.1300 H         1 ATP         0.4327
     33 HOB2        0.1664   -1.9906   -5.9254 H         1 ATP         0.4701
     34 H5'1        1.3514    0.2330   -2.1577 H         1 ATP         0.0401
     35 H5'2        2.1280   -1.3678   -2.0460 H         1 ATP         0.0401
     36 H4'         3.8044   -0.1397   -0.4040 H         1 ATP         0.1136
     37 H3'         1.6764   -1.7639    0.2728 H         1 ATP         0.0693
     38 HO3'        3.5554   -1.2733    1.4914 H         1 ATP         0.4124
     39 H2'        -0.0011    0.0027    0.0003 H         1 ATP         0.0854
     40 HO2'       -0.1563   -0.9855    2.0596 H         1 ATP         0.4367
     41 H1'         1.7826    1.9024    1.6451 H         1 ATP         0.1343
     42 H8          0.7125    2.3429   -1.9292 H         1 ATP         0.3302
     43 HN62       -3.3217    6.4517    0.2629 H         1 ATP         0.4160
     44 H2         -1.5188    4.4223    3.7890 H         1 ATP         0.0756
     45 H45        -2.7470    5.7627    2.3665 H         1 ATP         0.4587
     46 H46        -1.0305    4.1680   -2.1054 H         1 ATP         0.5254
@<TRIPOS>BOND
     1    1    2 2
     2    1    3 1
     3    1    4 1
     4    1    8 1
     5    4   32 1
     6    5    6 2
     7    5    7 1
     8    5    8 1
     9    5   12 1
    10    7   33 1
    11    9   10 2
    12    9   11 1
    13    9   12 1
    14    9   13 1
    15   13   14 1
    16   14   15 1
    17   14   34 1
    18   14   35 1
    19   15   16 1
    20   15   17 1
    21   15   36 1
    22   16   21 1
    23   17   18 1
    24   17   19 1
    25   17   37 1
    26   18   38 1
    27   19   20 1
    28   19   21 1
    29   19   39 1
    30   20   40 1
    31   21   22 1
    32   21   41 1
    33   22   23 ar
    34   22   31 ar
    35   23   24 ar
    36   23   42 1
    37   24   25 ar
    38   24   46 1
    39   25   26 ar
    40   25   31 ar
    41   26   27 2
    42   26   28 ar
    43   27   43 1
    44   28   29 ar
    45   28   45 1
    46   29   30 ar
    47   29   44 1
    48   30   31 ar
@<TRIPOS>SUBSTRUCTURE
     1 ATP         1 GROUP 0 A     ****
@<TRIPOS>MOLECULE
[[[3,4-dihydroxy-5-(6-imino-7,8-dihydro-1~{H}-purin-8-ylium-9-yl)tetrahydrofuran-2-yl]methoxy-oxido-phosphoryl]oxy-hydroxy-phosphoryl] hydrogen phosphate
   46    48     1     0     0
SMALL
USER_CHARGES

@<TRIPOS>ATOM
      1 PG          2.8125   -3.2044   -6.9492 P.3       1 ATP         1.5595
      2 O1G         2.7455   -4.5566   -7.6234 O.co2     1 ATP        -0.8438
      3 O2G         3.7691   -2.9532   -5.8050 O.co2     1 ATP        -0.8438
      4 O3G         3.0627   -2.0666   -8.0934 O.3       1 ATP        -0.7800
      5 PB          0.7629   -1.3788   -5.8701 P.3       1 ATP         1.9223
      6 O1B         0.9595   -0.1696   -6.7358 O.2       1 ATP        -0.8953
      7 O2B        -0.7739   -1.7074   -5.4905 O.3       1 ATP        -0.8165
      8 O3B         1.3093   -2.7675   -6.4913 O.3       1 ATP        -0.8247
      9 PA          1.5543   -2.4556   -3.2404 P.3       1 ATP         1.6157
     10 O1A         2.2585   -3.6986   -3.7394 O.co2     1 ATP        -0.8629
     11 O2A         0.1705   -2.5413   -2.6342 O.co2     1 ATP        -0.8629
     12 O3A         1.5194   -1.3517   -4.4431 O.3       1 ATP        -0.8191
     13 O5'         2.5245   -1.6648   -2.1878 O.3       1 ATP        -0.5644
     14 C5'         2.2816   -0.2918   -1.9206 C.3       1 ATP         0.2062
     15 C4'         2.7248    0.0226   -0.4980 C.3       1 ATP         0.0971
     16 O4'         2.4697    1.4219   -0.2462 O.3       1 ATP        -0.3662
     17 C3'         1.9404   -0.7419    0.5596 C.3       1 ATP         0.0734
     18 O3'         2.7418   -0.8086    1.7389 O.3       1 ATP        -0.5671
     19 C2'         0.7477    0.1630    0.7858 C.3       1 ATP         0.0745
     20 O2'         0.1373   -0.0577    2.0407 O.3       1 ATP        -0.5794
     21 C1'         1.3733    1.5427    0.6747 C.3       1 ATP         0.3824
     22 N9          0.4520    2.5240    0.1767 N.pl3     1 ATP        -0.4324
     23 C8         -0.2004    2.4829   -0.9804 C.ar      1 ATP         0.2662
     24 N7         -0.9830    3.5431   -1.1568 N.pl3     1 ATP        -0.4772
     25 C5         -0.8095    4.3012   -0.0331 C.ar      1 ATP        -0.1305
     26 C6         -1.4065    5.5904    0.3585 C.ar      1 ATP         0.7186
     27 N6         -2.2501    6.2030   -0.4084 N.2       1 ATP        -0.8115
     28 N1         -0.9585    6.0272    1.5994 N.pl3     1 ATP        -0.8400
     29 C2         -0.0508    5.3009    2.3532 C.ar      1 ATP         0.6671
     30 N3          0.4890    4.1592    2.0257 N.2       1 ATP        -0.5806
     31 C4          0.0637    3.7006    0.7995 C.ar      1 ATP         0.2748
     32 HOG3        3.1302   -1.1292   -7.8125 H         1 ATP         0.4327
     33 HOB2       -1.2947   -1.0375   -4.9983 H         1 ATP         0.4701
     34 H5'1        2.8432    0.3119   -2.6398 H         1 ATP         0.0401
     35 H5'2        1.2128   -0.0927   -2.0428 H         1 ATP         0.0401
     36 H4'         3.8044   -0.1397   -0.4040 H         1 ATP         0.1136
     37 H3'         1.6764   -1.7639    0.2728 H         1 ATP         0.0693
     38 HO3'        2.2232   -1.2979    2.3953 H         1 ATP         0.4124
     39 H2'        -0.0011    0.0027    0.0003 H         1 ATP         0.0854
     40 HO2'       -0.1563   -0.9855    2.0596 H         1 ATP         0.4367
     41 H1'         1.7826    1.9024    1.6451 H         1 ATP         0.1343
     42 H8         -0.1116    1.6863   -1.6984 H         1 ATP         0.3302
     43 HN62       -2.5420    7.0730    0.0447 H         1 ATP         0.4160
     44 H2          0.1969    5.7893    3.3086 H         1 ATP         0.0756
     45 H45        -1.3097    6.9080    1.9642 H         1 ATP         0.4587
     46 H46        -1.5735    3.7351   -1.9538 H         1 ATP         0.5254
@<TRIPOS>BOND
     1    1    2 2
     2    1    3 1
     3    1    4 1
     4    1    8 1
     5    4   32 1
     6    5    6 2
     7    5    7 1
     8    5    8 1
     9    5   12 1
    10    7   33 1
    11    9   10 2
    12    9   11 1
    13    9   12 1
    14    9   13 1
    15   13   14 1
    16   14   15 1
    17   14   34 1
    18   14   35 1
    19   15   16 1
    20   15   17 1
    21   15   36 1
    22   16   21 1
    23   17   18 1
    24   17   19 1
    25   17   37 1
    26   18   38 1
    27   19   20 1
    28   19   21 1
    29   19   39 1
    30   20   40 1
    31   21   22 1
    32   21   41 1
    33   22   23 ar
    34   22   31 ar
    35   23   24 ar
    36   23   42 1
    37   24   25 ar
    38   24   46 1
    39   25   26 ar
    40   25   31 ar
    41   26   27 2
    42   26   28 ar
    43   27   43 1
    44   28   29 ar
    45   28   45 1
    46   29   30 ar
    47   29   44 1
    48   30   31 ar
@<TRIPOS>SUBSTRUCTURE
     1 ATP         1 GROUP 0 A     ****
@<TRIPOS>MOLECULE
[[[3,4-dihydroxy-5-(6-imino-7,8-dihydro-1~{H}-purin-8-ylium-9-yl)tetrahydrofuran-2-yl]methoxy-oxido-phosphoryl]oxy-hydroxy-phosphoryl] hydrogen phosphate
   46    48     1     0     0
SMALL
USER_CHARGES

@<TRIPOS>ATOM
      1 PG          1.6530    3.5699   -6.5555 P.3       1 ATP         1.5595
      2 O1G         2.6691    3.6034   -5.4356 O.co2     1 ATP        -0.8438
      3 O2G         0.4806    4.5253   -6.5698 O.co2     1 ATP        -0.8438
      4 O3G         2.4447    3.6995   -7.9777 O.3       1 ATP        -0.7800
      5 PB          0.2024    1.1404   -5.7240 P.3       1 ATP         1.9223
      6 O1B        -1.1476    1.7027   -5.3896 O.2       1 ATP        -0.8953
      7 O2B         0.1830   -0.3103   -6.4371 O.3       1 ATP        -0.8165
      8 O3B         1.0983    2.0449   -6.7200 O.3       1 ATP        -0.8247
      9 PA          2.7406    0.3767   -4.4296 P.3       1 ATP         1.6157
     10 O1A         3.6419    1.3302   -5.1835 O.co2     1 ATP        -0.8629
     11 O2A         2.7082   -1.0955   -4.7781 O.co2     1 ATP        -0.8629
     12 O3A         1.2118    0.9483   -4.4776 O.3       1 ATP        -0.8191
     13 O5'         3.0213    0.5153   -2.8245 O.3       1 ATP        -0.5644
     14 C5'         2.2816   -0.2918   -1.9206 C.3       1 ATP         0.2062
     15 C4'         2.7248    0.0226   -0.4980 C.3       1 ATP         0.0971
     16 O4'         2.4697    1.4219   -0.2462 O.3       1 ATP        -0.3662
     17 C3'         1.9404   -0.7419    0.5596 C.3       1 ATP         0.0734
     18 O3'         2.7418   -0.8086    1.7389 O.3       1 ATP        -0.5671
     19 C2'         0.7477    0.1630    0.7858 C.3       1 ATP         0.0745
     20 O2'         0.1373   -0.0577    2.0407 O.3       1 ATP        -0.5794
     21 C1'         1.3733    1.5427    0.6747 C.3       1 ATP         0.3824
     22 N9          0.4520    2.5240    0.1767 N.pl3     1 ATP        -0.4324
     23 C8         -0.2004    2.4829   -0.9804 C.ar      1 ATP         0.2662
     24 N7         -0.9830    3.5431   -1.1568 N.pl3     1 ATP        -0.4772
     25 C5         -0.8095    4.3012   -0.0331 C.ar      1 ATP        -0.1305
     26 C6         -1.4065    5.5904    0.3585 C.ar      1 ATP         0.7186
     27 N6         -2.2501    6.2030   -0.4084 N.2       1 ATP        -0.8115
     28 N1         -0.9585    6.0272    1.5994 N.pl3     1 ATP        -0.8400
     29 C2         -0.0508    5.3009    2.3532 C.ar      1 ATP         0.6671
     30 N3          0.4890    4.1592    2.0257 N.2       1 ATP        -0.5806
     31 C4          0.0637    3.7006    0.7995 C.ar      1 ATP         0.2748
     32 HOG3        1.9198    3.6935   -8.8063 H         1 ATP         0.4327
     33 HOB2       -0.2231   -1.0668   -5.9628 H         1 ATP         0.4701
     34 H5'1        1.2163   -0.0770   -2.0471 H         1 ATP         0.0401
     35 H5'2        2.4655   -1.3443   -2.1563 H         1 ATP         0.0401
     36 H4'         3.8044   -0.1397   -0.4040 H         1 ATP         0.1136
     37 H3'         1.6764   -1.7639    0.2728 H         1 ATP         0.0693
     38 HO3'        2.2232   -1.2979    2.3953 H         1 ATP         0.4124
     39 H2'        -0.0011    0.0027    0.0003 H         1 ATP         0.0854
     40 HO2'       -0.1563   -0.9855    2.0596 H         1 ATP         0.4367
     41 H1'         1.7826    1.9024    1.6451 H         1 ATP         0.1343
     42 H8         -0.1116    1.6863   -1.6984 H         1 ATP         0.3302
     43 HN62       -2.5420    7.0730    0.0447 H         1 ATP         0.4160
     44 H2          0.1969    5.7893    3.3086 H         1 ATP         0.0756
     45 H45        -1.3097    6.9080    1.9642 H         1 ATP         0.4587
     46 H46        -1.5735    3.7351   -1.9538 H         1 ATP         0.5254
@<TRIPOS>BOND
     1    1    2 2
     2    1    3 1
     3    1    4 1
     4    1    8 1
     5    4   32 1
     6    5    6 2
     7    5    7 1
     8    5    8 1
     9    5   12 1
    10    7   33 1
    11    9   10 2
    12    9   11 1
    13    9   12 1
    14    9   13 1
    15   13   14 1
    16   14   15 1
    17   14   34 1
    18   14   35 1
    19   15   16 1
    20   15   17 1
    21   15   36 1
    22   16   21 1
    23   17   18 1
    24   17   19 1
    25   17   37 1
    26   18   38 1
    27   19   20 1
    28   19   21 1
    29   19   39 1
    30   20   40 1
    31   21   22 1
    32   21   41 1
    33   22   23 ar
    34   22   31 ar
    35   23   24 ar
    36   23   42 1
    37   24   25 ar
    38   24   46 1
    39   25   26 ar
    40   25   31 ar
    41   26   27 2
    42   26   28 ar
    43   27   43 1
    44   28   29 ar
    45   28   45 1
    46   29   30 ar
    47   29   44 1
    48   30   31 ar
@<TRIPOS>SUBSTRUCTURE
     1 ATP         1 GROUP 0 A     ****
@<TRIPOS>MOLECULE
[[[3,4-dihydroxy-5-(6-imino-7,8-dihydro-1~{H}-purin-8-ylium-9-yl)tetrahydrofuran-2-yl]methoxy-oxido-phosphoryl]oxy-hydroxy-phosphoryl] hydrogen phosphate
   46    48     1     0     0
SMALL
USER_CHARGES

@<TRIPOS>ATOM
      1 PG         -5.0072   -8.2149    1.6874 P.3       1 ATP         1.5595
      2 O1G        -5.2211   -9.7055    1.8284 O.co2     1 ATP        -0.8438
      3 O2G        -4.0020   -7.6641    0.7007 O.co2     1 ATP        -0.8438
      4 O3G        -6.4519   -7.5084    1.4046 O.3       1 ATP        -0.7800
      5 PB         -4.5543   -6.0440    3.6316 P.3       1 ATP         1.9223
      6 O1B        -5.7571   -5.1796    3.3943 O.2       1 ATP        -0.8953
      7 O2B        -4.0878   -6.1604    5.1752 O.3       1 ATP        -0.8165
      8 O3B        -4.7075   -7.5827    3.1607 O.3       1 ATP        -0.8247
      9 PA         -1.7207   -6.2768    2.8457 P.3       1 ATP         1.6157
     10 O1A        -1.8041   -7.6468    2.2084 O.co2     1 ATP        -0.8629
     11 O2A        -1.1159   -6.0993    4.2214 O.co2     1 ATP        -0.8629
     12 O3A        -3.2097   -5.6068    2.8503 O.3       1 ATP        -0.8191
     13 O5'        -0.9724   -5.2440    1.8220 O.3       1 ATP        -0.5644
     14 C5'        -0.7840   -3.8935    2.2172 C.3       1 ATP         0.2062
     15 C4'        -0.0724   -3.1466    1.1027 C.3       1 ATP         0.0971
     16 O4'        -0.8674   -3.1929   -0.0945 O.3       1 ATP        -0.3662
     17 C3'         0.1338   -1.6715    1.4027 C.3       1 ATP         0.0734
     18 O3'         1.2893   -1.4445    2.1808 O.3       1 ATP        -0.5671
     19 C2'         0.2158   -1.0724    0.0128 C.3       1 ATP         0.0745
     20 O2'         1.5141   -1.2448   -0.5513 O.3       1 ATP        -0.5794
     21 C1'        -0.7897   -1.9176   -0.7583 C.3       1 ATP         0.3824
     22 N9         -2.1040   -1.3333   -0.7704 N.pl3     1 ATP        -0.4324
     23 C8         -3.0590   -1.5123    0.1363 C.ar      1 ATP         0.2662
     24 N7         -4.1655   -0.8354   -0.1554 N.pl3     1 ATP        -0.4772
     25 C5         -3.8852   -0.1874   -1.3253 C.ar      1 ATP        -0.1305
     26 C6         -4.7113    0.7160   -2.1458 C.ar      1 ATP         0.7186
     27 N6         -5.9213    1.0209   -1.8021 N.2       1 ATP        -0.8115
     28 N1         -4.0411    1.1673   -3.2764 N.pl3     1 ATP        -0.8400
     29 C2         -2.7403    0.7865   -3.5638 C.ar      1 ATP         0.6671
     30 N3         -1.9921   -0.0108   -2.8519 N.2       1 ATP        -0.5806
     31 C4         -2.6302   -0.4747   -1.7239 C.ar      1 ATP         0.2748
     32 HOG3       -6.4807   -6.5348    1.2890 H         1 ATP         0.4327
     33 HOB2       -3.8306   -5.3449    5.6559 H         1 ATP         0.4701
     34 H5'1       -1.7618   -3.4448    2.4164 H         1 ATP         0.0401
     35 H5'2       -0.1874   -3.8744    3.1341 H         1 ATP         0.0401
     36 H4'         0.8874   -3.6466    0.8805 H         1 ATP         0.1136
     37 H3'        -0.7376   -1.2333    1.9867 H         1 ATP         0.0693
     38 HO3'        1.3408   -0.4870    2.3219 H         1 ATP         0.4124
     39 H2'        -0.0384   -0.0310    0.0096 H         1 ATP         0.0854
     40 HO2'        1.4998   -0.8412   -1.4369 H         1 ATP         0.4367
     41 H1'        -0.4769   -2.1002   -1.8093 H         1 ATP         0.1343
     42 H8         -2.9569   -2.1323    1.0098 H         1 ATP         0.3302
     43 HN62       -6.3169    1.6552   -2.5012 H         1 ATP         0.4160
     44 H2         -2.3612    1.2343   -4.4957 H         1 ATP         0.0756
     45 H45        -4.5223    1.7976   -3.9117 H         1 ATP         0.4587
     46 H46        -5.0218   -0.8132    0.3804 H         1 ATP         0.5254
@<TRIPOS>BOND
     1    1    2 2
     2    1    3 1
     3    1    4 1
     4    1    8 1
     5    4   32 1
     6    5    6 2
     7    5    7 1
     8    5    8 1
     9    5   12 1
    10    7   33 1
    11    9   10 2
    12    9   11 1
    13    9   12 1
    14    9   13 1
    15   13   14 1
    16   14   15 1
    17   14   34 1
    18   14   35 1
    19   15   16 1
    20   15   17 1
    21   15   36 1
    22   16   21 1
    23   17   18 1
    24   17   19 1
    25   17   37 1
    26   18   38 1
    27   19   20 1
    28   19   21 1
    29   19   39 1
    30   20   40 1
    31   21   22 1
    32   21   41 1
    33   22   23 ar
    34   22   31 ar
    35   23   24 ar
    36   23   42 1
    37   24   25 ar
    38   24   46 1
    39   25   26 ar
    40   25   31 ar
    41   26   27 2
    42   26   28 ar
    43   27   43 1
    44   28   29 ar
    45   28   45 1
    46   29   30 ar
    47   29   44 1
    48   30   31 ar
@<TRIPOS>SUBSTRUCTURE
     1 ATP         1 GROUP 0 A     ****
@<TRIPOS>MOLECULE
[[[3,4-dihydroxy-5-(6-imino-7,8-dihydro-1~{H}-purin-8-ylium-9-yl)tetrahydrofuran-2-yl]methoxy-oxido-phosphoryl]oxy-hydroxy-phosphoryl] hydrogen phosphate
   46    48     1     0     0
SMALL
USER_CHARGES

@<TRIPOS>ATOM
      1 PG          3.8938    0.6101   -7.7710 P.3       1 ATP         1.5595
      2 O1G         5.3090    0.5736   -8.3037 O.co2     1 ATP        -0.8438
      3 O2G         3.2736    1.9072   -7.3016 O.co2     1 ATP        -0.8438
      4 O3G         2.9048   -0.0657   -8.8806 O.3       1 ATP        -0.7800
      5 PB          2.4387   -1.0113   -5.7833 P.3       1 ATP         1.9223
      6 O1B         1.3529   -1.6093   -6.6281 O.2       1 ATP        -0.8953
      7 O2B         3.0453   -1.9931   -4.6512 O.3       1 ATP        -0.8165
      8 O3B         3.7439   -0.5080   -6.5932 O.3       1 ATP        -0.8247
      9 PA          2.9230    1.2546   -3.9578 P.3       1 ATP         1.6157
     10 O1A         2.0225    2.3091   -3.3519 O.co2     1 ATP        -0.8629
     11 O2A         4.2009    1.6442   -4.6683 O.co2     1 ATP        -0.8629
     12 O3A         2.0388    0.3241   -4.9671 O.3       1 ATP        -0.8191
     13 O5'         3.2903    0.1346   -2.8241 O.3       1 ATP        -0.5644
     14 C5'         2.2816   -0.2918   -1.9206 C.3       1 ATP         0.2062
     15 C4'         2.7248    0.0226   -0.4980 C.3       1 ATP         0.0971
     16 O4'         2.4697    1.4219   -0.2462 O.3       1 ATP        -0.3662
     17 C3'         1.9404   -0.7419    0.5596 C.3       1 ATP         0.0734
     18 O3'         2.7418   -0.8086    1.7389 O.3       1 ATP        -0.5671
     19 C2'         0.7477    0.1630    0.7858 C.3       1 ATP         0.0745
     20 O2'         0.1373   -0.0577    2.0407 O.3       1 ATP        -0.5794
     21 C1'         1.3733    1.5427    0.6747 C.3       1 ATP         0.3824
     22 N9          0.4520    2.5240    0.1767 N.pl3     1 ATP        -0.4324
     23 C8         -0.2004    2.4829   -0.9804 C.ar      1 ATP         0.2662
     24 N7         -0.9830    3.5431   -1.1568 N.pl3     1 ATP        -0.4772
     25 C5         -0.8095    4.3012   -0.0331 C.ar      1 ATP        -0.1305
     26 C6         -1.4065    5.5904    0.3585 C.ar      1 ATP         0.7186
     27 N6         -2.2501    6.2030   -0.4084 N.2       1 ATP        -0.8115
     28 N1         -0.9585    6.0272    1.5994 N.pl3     1 ATP        -0.8400
     29 C2         -0.0508    5.3009    2.3532 C.ar      1 ATP         0.6671
     30 N3          0.4890    4.1592    2.0257 N.2       1 ATP        -0.5806
     31 C4          0.0637    3.7006    0.7995 C.ar      1 ATP         0.2748
     32 HOG3        1.9458   -0.1174   -8.6811 H         1 ATP         0.4327
     33 HOB2        3.4656   -2.8349   -4.9288 H         1 ATP         0.4701
     34 H5'1        1.3514    0.2330   -2.1577 H         1 ATP         0.0401
     35 H5'2        2.1280   -1.3678   -2.0460 H         1 ATP         0.0401
     36 H4'         3.8044   -0.1397   -0.4040 H         1 ATP         0.1136
     37 H3'         1.6764   -1.7639    0.2728 H         1 ATP         0.0693
     38 HO3'        2.2232   -1.2979    2.3953 H         1 ATP         0.4124
     39 H2'        -0.0011    0.0027    0.0003 H         1 ATP         0.0854
     40 HO2'       -0.1563   -0.9855    2.0596 H         1 ATP         0.4367
     41 H1'         1.7826    1.9024    1.6451 H         1 ATP         0.1343
     42 H8         -0.1116    1.6863   -1.6984 H         1 ATP         0.3302
     43 HN62       -2.5420    7.0730    0.0447 H         1 ATP         0.4160
     44 H2          0.1969    5.7893    3.3086 H         1 ATP         0.0756
     45 H45        -1.3097    6.9080    1.9642 H         1 ATP         0.4587
     46 H46        -1.5735    3.7351   -1.9538 H         1 ATP         0.5254
@<TRIPOS>BOND
     1    1    2 2
     2    1    3 1
     3    1    4 1
     4    1    8 1
     5    4   32 1
     6    5    6 2
     7    5    7 1
     8    5    8 1
     9    5   12 1
    10    7   33 1
    11    9   10 2
    12    9   11 1
    13    9   12 1
    14    9   13 1
    15   13   14 1
    16   14   15 1
    17   14   34 1
    18   14   35 1
    19   15   16 1
    20   15   17 1
    21   15   36 1
    22   16   21 1
    23   17   18 1
    24   17   19 1
    25   17   37 1
    26   18   38 1
    27   19   20 1
    28   19   21 1
    29   19   39 1
    30   20   40 1
    31   21   22 1
    32   21   41 1
    33   22   23 ar
    34   22   31 ar
    35   23   24 ar
    36   23   42 1
    37   24   25 ar
    38   24   46 1
    39   25   26 ar
    40   25   31 ar
    41   26   27 2
    42   26   28 ar
    43   27   43 1
    44   28   29 ar
    45   28   45 1
    46   29   30 ar
    47   29   44 1
    48   30   31 ar
@<TRIPOS>SUBSTRUCTURE
     1 ATP         1 GROUP 0 A     ****
@<TRIPOS>MOLECULE
[[[3,4-dihydroxy-5-(6-imino-7,8-dihydro-1~{H}-purin-8-ylium-9-yl)tetrahydrofuran-2-yl]methoxy-oxido-phosphoryl]oxy-hydroxy-phosphoryl] hydrogen phosphate
   46    48     1     0     0
SMALL
USER_CHARGES

@<TRIPOS>ATOM
      1 PG          0.8597   -4.5325   -6.0524 P.3       1 ATP         1.5595
      2 O1G         0.0220   -4.1927   -7.2650 O.co2     1 ATP        -0.8438
      3 O2G         0.2097   -4.8844   -4.7329 O.co2     1 ATP        -0.8438
      4 O3G         1.8943   -5.7295   -6.4562 O.3       1 ATP        -0.7800
      5 PB          1.7308   -1.7980   -5.3733 P.3       1 ATP         1.9223
      6 O1B         2.9873   -0.9883   -5.2473 O.2       1 ATP        -0.8953
      7 O2B         0.6614   -1.2405   -6.4499 O.3       1 ATP        -0.8165
      8 O3B         1.9451   -3.3397   -5.8092 O.3       1 ATP        -0.8247
      9 PA          1.2680   -2.6342   -2.5827 P.3       1 ATP         1.6157
     10 O1A         1.7716   -4.0414   -2.8198 O.co2     1 ATP        -0.8629
     11 O2A         0.1425   -2.3698   -1.6064 O.co2     1 ATP        -0.8629
     12 O3A         0.8669   -1.9697   -4.0192 O.3       1 ATP        -0.8191
     13 O5'         2.5245   -1.6648   -2.1878 O.3       1 ATP        -0.5644
     14 C5'         2.2816   -0.2918   -1.9206 C.3       1 ATP         0.2062
     15 C4'         2.7248    0.0226   -0.4980 C.3       1 ATP         0.0971
     16 O4'         2.4697    1.4219   -0.2462 O.3       1 ATP        -0.3662
     17 C3'         1.9404   -0.7419    0.5596 C.3       1 ATP         0.0734
     18 O3'         2.7418   -0.8086    1.7389 O.3       1 ATP        -0.5671
     19 C2'         0.7477    0.1630    0.7858 C.3       1 ATP         0.0745
     20 O2'         0.1373   -0.0577    2.0407 O.3       1 ATP        -0.5794
     21 C1'         1.3733    1.5427    0.6747 C.3       1 ATP         0.3824
     22 N9          0.4520    2.5240    0.1767 N.pl3     1 ATP        -0.4324
     23 C8          0.2216    2.8192   -1.0985 C.ar      1 ATP         0.2662
     24 N7         -0.6906    3.7763   -1.2384 N.pl3     1 ATP        -0.4772
     25 C5         -1.0575    4.1037    0.0366 C.ar      1 ATP        -0.1305
     26 C6         -2.0291    5.0943    0.5330 C.ar      1 ATP         0.7186
     27 N6         -2.7093    5.8371   -0.2800 N.2       1 ATP        -0.8115
     28 N1         -2.1051    5.1136    1.9204 N.pl3     1 ATP        -0.8400
     29 C2         -1.3354    4.2774    2.7129 C.ar      1 ATP         0.6671
     30 N3         -0.4707    3.3945    2.2944 N.2       1 ATP        -0.5806
     31 C4         -0.3734    3.3525    0.9220 C.ar      1 ATP         0.2748
     32 HOG3        2.5110   -6.0643   -5.7708 H         1 ATP         0.4327
     33 HOB2        0.9304   -1.1641   -7.3902 H         1 ATP         0.4701
     34 H5'1        2.8432    0.3119   -2.6398 H         1 ATP         0.0401
     35 H5'2        1.2128   -0.0927   -2.0428 H         1 ATP         0.0401
     36 H4'         3.8044   -0.1397   -0.4040 H         1 ATP         0.1136
     37 H3'         1.6764   -1.7639    0.2728 H         1 ATP         0.0693
     38 HO3'        2.2232   -1.2979    2.3953 H         1 ATP         0.4124
     39 H2'        -0.0011    0.0027    0.0003 H         1 ATP         0.0854
     40 HO2'       -0.6141    0.5574    2.1082 H         1 ATP         0.4367
     41 H1'         1.7826    1.9024    1.6451 H         1 ATP         0.1343
     42 H8          0.7125    2.3429   -1.9292 H         1 ATP         0.3302
     43 HN62       -3.3217    6.4517    0.2629 H         1 ATP         0.4160
     44 H2         -1.5188    4.4223    3.7890 H         1 ATP         0.0756
     45 H45        -2.7470    5.7627    2.3665 H         1 ATP         0.4587
     46 H46        -1.0305    4.1680   -2.1054 H         1 ATP         0.5254
@<TRIPOS>BOND
     1    1    2 2
     2    1    3 1
     3    1    4 1
     4    1    8 1
     5    4   32 1
     6    5    6 2
     7    5    7 1
     8    5    8 1
     9    5   12 1
    10    7   33 1
    11    9   10 2
    12    9   11 1
    13    9   12 1
    14    9   13 1
    15   13   14 1
    16   14   15 1
    17   14   34 1
    18   14   35 1
    19   15   16 1
    20   15   17 1
    21   15   36 1
    22   16   21 1
    23   17   18 1
    24   17   19 1
    25   17   37 1
    26   18   38 1
    27   19   20 1
    28   19   21 1
    29   19   39 1
    30   20   40 1
    31   21   22 1
    32   21   41 1
    33   22   23 ar
    34   22   31 ar
    35   23   24 ar
    36   23   42 1
    37   24   25 ar
    38   24   46 1
    39   25   26 ar
    40   25   31 ar
    41   26   27 2
    42   26   28 ar
    43   27   43 1
    44   28   29 ar
    45   28   45 1
    46   29   30 ar
    47   29   44 1
    48   30   31 ar
@<TRIPOS>SUBSTRUCTURE
     1 ATP         1 GROUP 0 A     ****
@<TRIPOS>MOLECULE
[[[3,4-dihydroxy-5-(6-imino-7,8-dihydro-1~{H}-purin-8-ylium-9-yl)tetrahydrofuran-2-yl]methoxy-oxido-phosphoryl]oxy-hydroxy-phosphoryl] hydrogen phosphate
   46    48     1     0     0
SMALL
USER_CHARGES

@<TRIPOS>ATOM
      1 PG          5.9381   -1.7803   -6.6169 P.3       1 ATP         1.5595
      2 O1G         4.8238   -0.9335   -7.1905 O.co2     1 ATP        -0.8438
      3 O2G         6.2243   -3.1614   -7.1629 O.co2     1 ATP        -0.8438
      4 O3G         7.3203   -0.9118   -6.6534 O.3       1 ATP        -0.7800
      5 PB          4.5975   -2.5883   -4.1173 P.3       1 ATP         1.9223
      6 O1B         4.4570   -4.0676   -4.3227 O.2       1 ATP        -0.8953
      7 O2B         4.9399   -2.1360   -2.6035 O.3       1 ATP        -0.8165
      8 O3B         5.7496   -1.8762   -4.9997 O.3       1 ATP        -0.8247
      9 PA          3.0673   -0.0858   -4.4292 P.3       1 ATP         1.6157
     10 O1A         1.6266    0.2116   -4.7838 O.co2     1 ATP        -0.8629
     11 O2A         4.2011    0.5980   -5.1618 O.co2     1 ATP        -0.8629
     12 O3A         3.3063   -1.6991   -4.5069 O.3       1 ATP        -0.8191
     13 O5'         3.2903    0.1346   -2.8241 O.3       1 ATP        -0.5644
     14 C5'         2.2816   -0.2918   -1.9206 C.3       1 ATP         0.2062
     15 C4'         2.7248    0.0226   -0.4980 C.3       1 ATP         0.0971
     16 O4'         2.4697    1.4219   -0.2462 O.3       1 ATP        -0.3662
     17 C3'         1.9404   -0.7419    0.5596 C.3       1 ATP         0.0734
     18 O3'         2.7418   -0.8086    1.7389 O.3       1 ATP        -0.5671
     19 C2'         0.7477    0.1630    0.7858 C.3       1 ATP         0.0745
     20 O2'         0.1373   -0.0577    2.0407 O.3       1 ATP        -0.5794
     21 C1'         1.3733    1.5427    0.6747 C.3       1 ATP         0.3824
     22 N9          0.4520    2.5240    0.1767 N.pl3     1 ATP        -0.4324
     23 C8          0.5691    3.2215   -0.9485 C.ar      1 ATP         0.2662
     24 N7         -0.4499    4.0551   -1.1342 N.pl3     1 ATP        -0.4772
     25 C5         -1.2618    3.8674   -0.0512 C.ar      1 ATP        -0.1305
     26 C6         -2.5420    4.5007    0.3120 C.ar      1 ATP         0.7186
     27 N6         -3.0874    5.3993   -0.4432 N.2       1 ATP        -0.8115
     28 N1         -3.0494    4.0205    1.5133 N.pl3     1 ATP        -0.8400
     29 C2         -2.3933    3.0527    2.2567 C.ar      1 ATP         0.6671
     30 N3         -1.2611    2.4796    1.9536 N.2       1 ATP        -0.5806
     31 C4         -0.7334    2.9358    0.7669 C.ar      1 ATP         0.2748
     32 HOG3        8.1413   -1.3264   -6.3123 H         1 ATP         0.4327
     33 HOB2        4.3119   -2.3663   -1.8859 H         1 ATP         0.4701
     34 H5'1        1.3514    0.2330   -2.1577 H         1 ATP         0.0401
     35 H5'2        2.1280   -1.3678   -2.0460 H         1 ATP         0.0401
     36 H4'         3.8044   -0.1397   -0.4040 H         1 ATP         0.1136
     37 H3'         1.6764   -1.7639    0.2728 H         1 ATP         0.0693
     38 HO3'        2.2232   -1.2979    2.3953 H         1 ATP         0.4124
     39 H2'        -0.0011    0.0027    0.0003 H         1 ATP         0.0854
     40 HO2'       -0.1563   -0.9855    2.0596 H         1 ATP         0.4367
     41 H1'         1.7826    1.9024    1.6451 H         1 ATP         0.1343
     42 H8          1.3912    3.1285   -1.6365 H         1 ATP         0.3302
     43 HN62       -3.9637    5.7084   -0.0142 H         1 ATP         0.4160
     44 H2         -2.9317    2.7866    3.1796 H         1 ATP         0.0756
     45 H45        -3.9307    4.3923    1.8559 H         1 ATP         0.4587
     46 H46        -0.5835    4.6857   -1.9122 H         1 ATP         0.5254
@<TRIPOS>BOND
     1    1    2 2
     2    1    3 1
     3    1    4 1
     4    1    8 1
     5    4   32 1
     6    5    6 2
     7    5    7 1
     8    5    8 1
     9    5   12 1
    10    7   33 1
    11    9   10 2
    12    9   11 1
    13    9   12 1
    14    9   13 1
    15   13   14 1
    16   14   15 1
    17   14   34 1
    18   14   35 1
    19   15   16 1
    20   15   17 1
    21   15   36 1
    22   16   21 1
    23   17   18 1
    24   17   19 1
    25   17   37 1
    26   18   38 1
    27   19   20 1
    28   19   21 1
    29   19   39 1
    30   20   40 1
    31   21   22 1
    32   21   41 1
    33   22   23 ar
    34   22   31 ar
    35   23   24 ar
    36   23   42 1
    37   24   25 ar
    38   24   46 1
    39   25   26 ar
    40   25   31 ar
    41   26   27 2
    42   26   28 ar
    43   27   43 1
    44   28   29 ar
    45   28   45 1
    46   29   30 ar
    47   29   44 1
    48   30   31 ar
@<TRIPOS>SUBSTRUCTURE
     1 ATP         1 GROUP 0 A     ****
@<TRIPOS>MOLECULE
[[[3,4-dihydroxy-5-(6-imino-7,8-dihydro-1~{H}-purin-8-ylium-9-yl)tetrahydrofuran-2-yl]methoxy-oxido-phosphoryl]oxy-hydroxy-phosphoryl] hydrogen phosphate
   46    48     1     0     0
SMALL
USER_CHARGES

@<TRIPOS>ATOM
      1 PG          2.0429    1.6078   -7.7009 P.3       1 ATP         1.5595
      2 O1G         0.8864    1.2318   -8.6003 O.co2     1 ATP        -0.8438
      3 O2G         3.2264    0.6820   -7.5289 O.co2     1 ATP        -0.8438
      4 O3G         2.5950    3.0764   -8.1533 O.3       1 ATP        -0.7800
      5 PB          0.7324    1.0973   -5.1086 P.3       1 ATP         1.9223
      6 O1B         0.3293    1.8242   -3.8599 O.2       1 ATP        -0.8953
      7 O2B        -0.4801    0.3933   -5.9136 O.3       1 ATP        -0.8165
      8 O3B         1.4605    2.0054   -6.2302 O.3       1 ATP        -0.8247
      9 PA          3.3342   -0.0516   -4.3262 P.3       1 ATP         1.6157
     10 O1A         4.1296    0.9783   -5.0986 O.co2     1 ATP        -0.8629
     11 O2A         3.8297   -1.4758   -4.1998 O.co2     1 ATP        -0.8629
     12 O3A         1.8112   -0.0892   -4.9136 O.3       1 ATP        -0.8191
     13 O5'         3.0213    0.5153   -2.8245 O.3       1 ATP        -0.5644
     14 C5'         2.2816   -0.2918   -1.9206 C.3       1 ATP         0.2062
     15 C4'         2.7248    0.0226   -0.4980 C.3       1 ATP         0.0971
     16 O4'         2.4697    1.4219   -0.2462 O.3       1 ATP        -0.3662
     17 C3'         1.9404   -0.7419    0.5596 C.3       1 ATP         0.0734
     18 O3'         2.7418   -0.8086    1.7389 O.3       1 ATP        -0.5671
     19 C2'         0.7477    0.1630    0.7858 C.3       1 ATP         0.0745
     20 O2'         0.1373   -0.0577    2.0407 O.3       1 ATP        -0.5794
     21 C1'         1.3733    1.5427    0.6747 C.3       1 ATP         0.3824
     22 N9          0.4520    2.5240    0.1767 N.pl3     1 ATP        -0.4324
     23 C8          0.5691    3.2215   -0.9485 C.ar      1 ATP         0.2662
     24 N7         -0.4499    4.0551   -1.1342 N.pl3     1 ATP        -0.4772
     25 C5         -1.2618    3.8674   -0.0512 C.ar      1 ATP        -0.1305
     26 C6         -2.5420    4.5007    0.3120 C.ar      1 ATP         0.7186
     27 N6         -3.0874    5.3993   -0.4432 N.2       1 ATP        -0.8115
     28 N1         -3.0494    4.0205    1.5133 N.pl3     1 ATP        -0.8400
     29 C2         -2.3933    3.0527    2.2567 C.ar      1 ATP         0.6671
     30 N3         -1.2611    2.4796    1.9536 N.2       1 ATP        -0.5806
     31 C4         -0.7334    2.9358    0.7669 C.ar      1 ATP         0.2748
     32 HOG3        3.3508    3.4626   -7.6616 H         1 ATP         0.4327
     33 HOB2       -1.2135    0.9513   -6.2498 H         1 ATP         0.4701
     34 H5'1        1.2163   -0.0770   -2.0471 H         1 ATP         0.0401
     35 H5'2        2.4655   -1.3443   -2.1563 H         1 ATP         0.0401
     36 H4'         3.8044   -0.1397   -0.4040 H         1 ATP         0.1136
     37 H3'         1.6764   -1.7639    0.2728 H         1 ATP         0.0693
     38 HO3'        2.2232   -1.2979    2.3953 H         1 ATP         0.4124
     39 H2'        -0.0011    0.0027    0.0003 H         1 ATP         0.0854
     40 HO2'       -0.1563   -0.9855    2.0596 H         1 ATP         0.4367
     41 H1'         1.7826    1.9024    1.6451 H         1 ATP         0.1343
     42 H8          1.3912    3.1285   -1.6365 H         1 ATP         0.3302
     43 HN62       -3.9637    5.7084   -0.0142 H         1 ATP         0.4160
     44 H2         -2.9317    2.7866    3.1796 H         1 ATP         0.0756
     45 H45        -3.9307    4.3923    1.8559 H         1 ATP         0.4587
     46 H46        -0.5835    4.6857   -1.9122 H         1 ATP         0.5254
@<TRIPOS>BOND
     1    1    2 2
     2    1    3 1
     3    1    4 1
     4    1    8 1
     5    4   32 1
     6    5    6 2
     7    5    7 1
     8    5    8 1
     9    5   12 1
    10    7   33 1
    11    9   10 2
    12    9   11 1
    13    9   12 1
    14    9   13 1
    15   13   14 1
    16   14   15 1
    17   14   34 1
    18   14   35 1
    19   15   16 1
    20   15   17 1
    21   15   36 1
    22   16   21 1
    23   17   18 1
    24   17   19 1
    25   17   37 1
    26   18   38 1
    27   19   20 1
    28   19   21 1
    29   19   39 1
    30   20   40 1
    31   21   22 1
    32   21   41 1
    33   22   23 ar
    34   22   31 ar
    35   23   24 ar
    36   23   42 1
    37   24   25 ar
    38   24   46 1
    39   25   26 ar
    40   25   31 ar
    41   26   27 2
    42   26   28 ar
    43   27   43 1
    44   28   29 ar
    45   28   45 1
    46   29   30 ar
    47   29   44 1
    48   30   31 ar
@<TRIPOS>SUBSTRUCTURE
     1 ATP         1 GROUP 0 A     ****
@<TRIPOS>MOLECULE
[[[3,4-dihydroxy-5-(6-imino-7,8-dihydro-1~{H}-purin-8-ylium-9-yl)tetrahydrofuran-2-yl]methoxy-oxido-phosphoryl]oxy-hydroxy-phosphoryl] hydrogen phosphate
   46    48     1     0     0
SMALL
USER_CHARGES

@<TRIPOS>ATOM
      1 PG         -0.0146   -3.7899   -6.1470 P.3       1 ATP         1.5595
      2 O1G        -0.3693   -3.3293   -7.5433 O.co2     1 ATP        -0.8438
      3 O2G        -1.0684   -3.8744   -5.0655 O.co2     1 ATP        -0.8438
      4 O3G         0.7361   -5.2361   -6.2534 O.3       1 ATP        -0.7800
      5 PB          1.3294   -1.3301   -5.2300 P.3       1 ATP         1.9223
      6 O1B         1.0230   -0.3887   -6.3570 O.2       1 ATP        -0.8953
      7 O2B         0.3709   -1.1853   -3.9363 O.3       1 ATP        -0.8165
      8 O3B         1.2387   -2.9010   -5.6000 O.3       1 ATP        -0.8247
      9 PA          3.5300   -2.0728   -3.4114 P.3       1 ATP         1.6157
     10 O1A         4.9024   -1.4905   -3.1520 O.co2     1 ATP        -0.8629
     11 O2A         3.3570   -3.5495   -3.6925 O.co2     1 ATP        -0.8629
     12 O3A         2.8226   -1.2346   -4.6211 O.3       1 ATP        -0.8191
     13 O5'         2.5245   -1.6648   -2.1878 O.3       1 ATP        -0.5644
     14 C5'         2.2816   -0.2918   -1.9206 C.3       1 ATP         0.2062
     15 C4'         2.7248    0.0226   -0.4980 C.3       1 ATP         0.0971
     16 O4'         2.4697    1.4219   -0.2462 O.3       1 ATP        -0.3662
     17 C3'         1.9404   -0.7419    0.5596 C.3       1 ATP         0.0734
     18 O3'         2.7418   -0.8086    1.7389 O.3       1 ATP        -0.5671
     19 C2'         0.7477    0.1630    0.7858 C.3       1 ATP         0.0745
     20 O2'         0.1373   -0.0577    2.0407 O.3       1 ATP        -0.5794
     21 C1'         1.3733    1.5427    0.6747 C.3       1 ATP         0.3824
     22 N9          0.4520    2.5240    0.1767 N.pl3     1 ATP        -0.4324
     23 C8          0.2216    2.8192   -1.0985 C.ar      1 ATP         0.2662
     24 N7         -0.6906    3.7763   -1.2384 N.pl3     1 ATP        -0.4772
     25 C5         -1.0575    4.1037    0.0366 C.ar      1 ATP        -0.1305
     26 C6         -2.0291    5.0943    0.5330 C.ar      1 ATP         0.7186
     27 N6         -2.7093    5.8371   -0.2800 N.2       1 ATP        -0.8115
     28 N1         -2.1051    5.1136    1.9204 N.pl3     1 ATP        -0.8400
     29 C2         -1.3354    4.2774    2.7129 C.ar      1 ATP         0.6671
     30 N3         -0.4707    3.3945    2.2944 N.2       1 ATP        -0.5806
     31 C4         -0.3734    3.3525    0.9220 C.ar      1 ATP         0.2748
     32 HOG3        1.0313   -5.6708   -5.4251 H         1 ATP         0.4327
     33 HOB2       -0.5939   -1.3273   -4.0423 H         1 ATP         0.4701
     34 H5'1        2.8432    0.3119   -2.6398 H         1 ATP         0.0401
     35 H5'2        1.2128   -0.0927   -2.0428 H         1 ATP         0.0401
     36 H4'         3.8044   -0.1397   -0.4040 H         1 ATP         0.1136
     37 H3'         1.6764   -1.7639    0.2728 H         1 ATP         0.0693
     38 HO3'        2.2232   -1.2979    2.3953 H         1 ATP         0.4124
     39 H2'        -0.0011    0.0027    0.0003 H         1 ATP         0.0854
     40 HO2'       -0.6141    0.5574    2.1082 H         1 ATP         0.4367
     41 H1'         1.7826    1.9024    1.6451 H         1 ATP         0.1343
     42 H8          0.7125    2.3429   -1.9292 H         1 ATP         0.3302
     43 HN62       -3.3217    6.4517    0.2629 H         1 ATP         0.4160
     44 H2         -1.5188    4.4223    3.7890 H         1 ATP         0.0756
     45 H45        -2.7470    5.7627    2.3665 H         1 ATP         0.4587
     46 H46        -1.0305    4.1680   -2.1054 H         1 ATP         0.5254
@<TRIPOS>BOND
     1    1    2 2
     2    1    3 1
     3    1    4 1
     4    1    8 1
     5    4   32 1
     6    5    6 2
     7    5    7 1
     8    5    8 1
     9    5   12 1
    10    7   33 1
    11    9   10 2
    12    9   11 1
    13    9   12 1
    14    9   13 1
    15   13   14 1
    16   14   15 1
    17   14   34 1
    18   14   35 1
    19   15   16 1
    20   15   17 1
    21   15   36 1
    22   16   21 1
    23   17   18 1
    24   17   19 1
    25   17   37 1
    26   18   38 1
    27   19   20 1
    28   19   21 1
    29   19   39 1
    30   20   40 1
    31   21   22 1
    32   21   41 1
    33   22   23 ar
    34   22   31 ar
    35   23   24 ar
    36   23   42 1
    37   24   25 ar
    38   24   46 1
    39   25   26 ar
    40   25   31 ar
    41   26   27 2
    42   26   28 ar
    43   27   43 1
    44   28   29 ar
    45   28   45 1
    46   29   30 ar
    47   29   44 1
    48   30   31 ar
@<TRIPOS>SUBSTRUCTURE
     1 ATP         1 GROUP 0 A     ****
@<TRIPOS>MOLECULE
[[[3,4-dihydroxy-5-(6-imino-7,8-dihydro-1~{H}-purin-8-ylium-9-yl)tetrahydrofuran-2-yl]methoxy-oxido-phosphoryl]oxy-hydroxy-phosphoryl] hydrogen phosphate
   46    48     1     0     0
SMALL
USER_CHARGES

@<TRIPOS>ATOM
      1 PG          3.8315    4.2649   -5.6117 P.3       1 ATP         1.5595
      2 O1G         4.7312    3.4008   -4.7565 O.co2     1 ATP        -0.8438
      3 O2G         3.5084    5.6866   -5.2094 O.co2     1 ATP        -0.8438
      4 O3G         4.4205    4.2782   -7.1345 O.3       1 ATP        -0.7800
      5 PB          1.2557    3.0281   -4.8813 P.3       1 ATP         1.9223
      6 O1B         0.5768    4.1596   -4.1677 O.2       1 ATP        -0.8953
      7 O2B         0.2855    2.1150   -5.7970 O.3       1 ATP        -0.8165
      8 O3B         2.4397    3.4624   -5.8925 O.3       1 ATP        -0.8247
      9 PA          2.8619    0.6169   -4.3269 P.3       1 ATP         1.6157
     10 O1A         4.0991    1.0216   -5.0986 O.co2     1 ATP        -0.8629
     11 O2A         1.8962   -0.4016   -4.8925 O.co2     1 ATP        -0.8629
     12 O3A         2.0200    1.9612   -3.9394 O.3       1 ATP        -0.8191
     13 O5'         3.2903    0.1346   -2.8241 O.3       1 ATP        -0.5644
     14 C5'         2.2816   -0.2918   -1.9206 C.3       1 ATP         0.2062
     15 C4'         2.7248    0.0226   -0.4980 C.3       1 ATP         0.0971
     16 O4'         2.4697    1.4219   -0.2462 O.3       1 ATP        -0.3662
     17 C3'         1.9404   -0.7419    0.5596 C.3       1 ATP         0.0734
     18 O3'         2.7418   -0.8086    1.7389 O.3       1 ATP        -0.5671
     19 C2'         0.7477    0.1630    0.7858 C.3       1 ATP         0.0745
     20 O2'         0.1373   -0.0577    2.0407 O.3       1 ATP        -0.5794
     21 C1'         1.3733    1.5427    0.6747 C.3       1 ATP         0.3824
     22 N9          0.4520    2.5240    0.1767 N.pl3     1 ATP        -0.4324
     23 C8         -0.2004    2.4829   -0.9804 C.ar      1 ATP         0.2662
     24 N7         -0.9830    3.5431   -1.1568 N.pl3     1 ATP        -0.4772
     25 C5         -0.8095    4.3012   -0.0331 C.ar      1 ATP        -0.1305
     26 C6         -1.4065    5.5904    0.3585 C.ar      1 ATP         0.7186
     27 N6         -2.2501    6.2030   -0.4084 N.2       1 ATP        -0.8115
     28 N1         -0.9585    6.0272    1.5994 N.pl3     1 ATP        -0.8400
     29 C2         -0.0508    5.3009    2.3532 C.ar      1 ATP         0.6671
     30 N3          0.4890    4.1592    2.0257 N.2       1 ATP        -0.5806
     31 C4          0.0637    3.7006    0.7995 C.ar      1 ATP         0.2748
     32 HOG3        3.9435    4.7995   -7.8149 H         1 ATP         0.4327
     33 HOB2       -0.2042    2.5357   -6.5355 H         1 ATP         0.4701
     34 H5'1        1.3514    0.2330   -2.1577 H         1 ATP         0.0401
     35 H5'2        2.1280   -1.3678   -2.0460 H         1 ATP         0.0401
     36 H4'         3.8044   -0.1397   -0.4040 H         1 ATP         0.1136
     37 H3'         1.6764   -1.7639    0.2728 H         1 ATP         0.0693
     38 HO3'        3.5554   -1.2733    1.4914 H         1 ATP         0.4124
     39 H2'        -0.0011    0.0027    0.0003 H         1 ATP         0.0854
     40 HO2'       -0.6141    0.5574    2.1082 H         1 ATP         0.4367
     41 H1'         1.7826    1.9024    1.6451 H         1 ATP         0.1343
     42 H8         -0.1116    1.6863   -1.6984 H         1 ATP         0.3302
     43 HN62       -2.5420    7.0730    0.0447 H         1 ATP         0.4160
     44 H2          0.1969    5.7893    3.3086 H         1 ATP         0.0756
     45 H45        -1.3097    6.9080    1.9642 H         1 ATP         0.4587
     46 H46        -1.5735    3.7351   -1.9538 H         1 ATP         0.5254
@<TRIPOS>BOND
     1    1    2 2
     2    1    3 1
     3    1    4 1
     4    1    8 1
     5    4   32 1
     6    5    6 2
     7    5    7 1
     8    5    8 1
     9    5   12 1
    10    7   33 1
    11    9   10 2
    12    9   11 1
    13    9   12 1
    14    9   13 1
    15   13   14 1
    16   14   15 1
    17   14   34 1
    18   14   35 1
    19   15   16 1
    20   15   17 1
    21   15   36 1
    22   16   21 1
    23   17   18 1
    24   17   19 1
    25   17   37 1
    26   18   38 1
    27   19   20 1
    28   19   21 1
    29   19   39 1
    30   20   40 1
    31   21   22 1
    32   21   41 1
    33   22   23 ar
    34   22   31 ar
    35   23   24 ar
    36   23   42 1
    37   24   25 ar
    38   24   46 1
    39   25   26 ar
    40   25   31 ar
    41   26   27 2
    42   26   28 ar
    43   27   43 1
    44   28   29 ar
    45   28   45 1
    46   29   30 ar
    47   29   44 1
    48   30   31 ar
@<TRIPOS>SUBSTRUCTURE
     1 ATP         1 GROUP 0 A     ****
@<TRIPOS>MOLECULE
[[[3,4-dihydroxy-5-(6-imino-7,8-dihydro-1~{H}-purin-8-ylium-9-yl)tetrahydrofuran-2-yl]methoxy-oxido-phosphoryl]oxy-hydroxy-phosphoryl] hydrogen phosphate
   46    48     1     0     0
SMALL
USER_CHARGES

@<TRIPOS>ATOM
      1 PG         -0.3406   -1.6535   -5.7810 P.3       1 ATP         1.5595
      2 O1G        -0.2547   -0.6809   -4.6259 O.co2     1 ATP        -0.8438
      3 O2G        -1.0709   -2.9699   -5.6356 O.co2     1 ATP        -0.8438
      4 O3G        -0.9444   -0.8661   -7.0778 O.3       1 ATP        -0.7800
      5 PB          2.4178   -2.6895   -5.6540 P.3       1 ATP         1.9223
      6 O1B         2.1781   -4.1216   -5.2772 O.2       1 ATP        -0.8953
      7 O2B         3.6292   -2.4488   -6.6971 O.3       1 ATP        -0.8165
      8 O3B         1.1633   -1.9390   -6.3439 O.3       1 ATP        -0.8247
      9 PA          3.0673   -0.0858   -4.4292 P.3       1 ATP         1.6157
     10 O1A         1.8255    0.6567   -4.8725 O.co2     1 ATP        -0.8629
     11 O2A         4.3921    0.1382   -5.1252 O.co2     1 ATP        -0.8629
     12 O3A         2.7518   -1.6878   -4.4314 O.3       1 ATP        -0.8191
     13 O5'         3.2903    0.1346   -2.8241 O.3       1 ATP        -0.5644
     14 C5'         2.2816   -0.2918   -1.9206 C.3       1 ATP         0.2062
     15 C4'         2.7248    0.0226   -0.4980 C.3       1 ATP         0.0971
     16 O4'         2.4697    1.4219   -0.2462 O.3       1 ATP        -0.3662
     17 C3'         1.9404   -0.7419    0.5596 C.3       1 ATP         0.0734
     18 O3'         2.7418   -0.8086    1.7389 O.3       1 ATP        -0.5671
     19 C2'         0.7477    0.1630    0.7858 C.3       1 ATP         0.0745
     20 O2'         0.1373   -0.0577    2.0407 O.3       1 ATP        -0.5794
     21 C1'         1.3733    1.5427    0.6747 C.3       1 ATP         0.3824
     22 N9          0.4520    2.5240    0.1767 N.pl3     1 ATP        -0.4324
     23 C8          0.2216    2.8192   -1.0985 C.ar      1 ATP         0.2662
     24 N7         -0.6906    3.7763   -1.2384 N.pl3     1 ATP        -0.4772
     25 C5         -1.0575    4.1037    0.0366 C.ar      1 ATP        -0.1305
     26 C6         -2.0291    5.0943    0.5330 C.ar      1 ATP         0.7186
     27 N6         -2.7093    5.8371   -0.2800 N.2       1 ATP        -0.8115
     28 N1         -2.1051    5.1136    1.9204 N.pl3     1 ATP        -0.8400
     29 C2         -1.3354    4.2774    2.7129 C.ar      1 ATP         0.6671
     30 N3         -0.4707    3.3945    2.2944 N.2       1 ATP        -0.5806
     31 C4         -0.3734    3.3525    0.9220 C.ar      1 ATP         0.2748
     32 HOG3       -1.0618   -1.3654   -7.9139 H         1 ATP         0.4327
     33 HOB2        3.5845   -2.8706   -7.5817 H         1 ATP         0.4701
     34 H5'1        1.3514    0.2330   -2.1577 H         1 ATP         0.0401
     35 H5'2        2.1280   -1.3678   -2.0460 H         1 ATP         0.0401
     36 H4'         3.8044   -0.1397   -0.4040 H         1 ATP         0.1136
     37 H3'         1.6764   -1.7639    0.2728 H         1 ATP         0.0693
     38 HO3'        2.2232   -1.2979    2.3953 H         1 ATP         0.4124
     39 H2'        -0.0011    0.0027    0.0003 H         1 ATP         0.0854
     40 HO2'       -0.1563   -0.9855    2.0596 H         1 ATP         0.4367
     41 H1'         1.7826    1.9024    1.6451 H         1 ATP         0.1343
     42 H8          0.7125    2.3429   -1.9292 H         1 ATP         0.3302
     43 HN62       -3.3217    6.4517    0.2629 H         1 ATP         0.4160
     44 H2         -1.5188    4.4223    3.7890 H         1 ATP         0.0756
     45 H45        -2.7470    5.7627    2.3665 H         1 ATP         0.4587
     46 H46        -1.0305    4.1680   -2.1054 H         1 ATP         0.5254
@<TRIPOS>BOND
     1    1    2 2
     2    1    3 1
     3    1    4 1
     4    1    8 1
     5    4   32 1
     6    5    6 2
     7    5    7 1
     8    5    8 1
     9    5   12 1
    10    7   33 1
    11    9   10 2
    12    9   11 1
    13    9   12 1
    14    9   13 1
    15   13   14 1
    16   14   15 1
    17   14   34 1
    18   14   35 1
    19   15   16 1
    20   15   17 1
    21   15   36 1
    22   16   21 1
    23   17   18 1
    24   17   19 1
    25   17   37 1
    26   18   38 1
    27   19   20 1
    28   19   21 1
    29   19   39 1
    30   20   40 1
    31   21   22 1
    32   21   41 1
    33   22   23 ar
    34   22   31 ar
    35   23   24 ar
    36   23   42 1
    37   24   25 ar
    38   24   46 1
    39   25   26 ar
    40   25   31 ar
    41   26   27 2
    42   26   28 ar
    43   27   43 1
    44   28   29 ar
    45   28   45 1
    46   29   30 ar
    47   29   44 1
    48   30   31 ar
@<TRIPOS>SUBSTRUCTURE
     1 ATP         1 GROUP 0 A     ****
@<TRIPOS>MOLECULE
[[[3,4-dihydroxy-5-(6-imino-7,8-dihydro-1~{H}-purin-8-ylium-9-yl)tetrahydrofuran-2-yl]methoxy-oxido-phosphoryl]oxy-hydroxy-phosphoryl] hydrogen phosphate
   46    48     1     0     0
SMALL
USER_CHARGES

@<TRIPOS>ATOM
      1 PG         -5.1635   -8.1225    2.1041 P.3       1 ATP         1.5595
      2 O1G        -6.5672   -7.8069    2.5706 O.co2     1 ATP        -0.8438
      3 O2G        -4.0931   -8.5395    3.0879 O.co2     1 ATP        -0.8438
      4 O3G        -5.2502   -9.2480    0.9244 O.3       1 ATP        -0.7800
      5 PB         -4.2511   -5.3564    1.6410 P.3       1 ATP         1.9223
      6 O1B        -3.7604   -4.4774    0.5289 O.2       1 ATP        -0.8953
      7 O2B        -5.5920   -4.8401    2.3819 O.3       1 ATP        -0.8165
      8 O3B        -4.6097   -6.8735    1.2134 O.3       1 ATP        -0.8247
      9 PA         -1.7207   -6.2768    2.8457 P.3       1 ATP         1.6157
     10 O1A        -1.8041   -7.6468    2.2084 O.co2     1 ATP        -0.8629
     11 O2A        -1.1159   -6.0993    4.2214 O.co2     1 ATP        -0.8629
     12 O3A        -3.2097   -5.6068    2.8503 O.3       1 ATP        -0.8191
     13 O5'        -0.9724   -5.2440    1.8220 O.3       1 ATP        -0.5644
     14 C5'        -0.7840   -3.8935    2.2172 C.3       1 ATP         0.2062
     15 C4'        -0.0724   -3.1466    1.1027 C.3       1 ATP         0.0971
     16 O4'        -0.8674   -3.1929   -0.0945 O.3       1 ATP        -0.3662
     17 C3'         0.1338   -1.6715    1.4027 C.3       1 ATP         0.0734
     18 O3'         1.2893   -1.4445    2.1808 O.3       1 ATP        -0.5671
     19 C2'         0.2158   -1.0724    0.0128 C.3       1 ATP         0.0745
     20 O2'         1.5141   -1.2448   -0.5513 O.3       1 ATP        -0.5794
     21 C1'        -0.7897   -1.9176   -0.7583 C.3       1 ATP         0.3824
     22 N9         -2.1040   -1.3333   -0.7704 N.pl3     1 ATP        -0.4324
     23 C8         -3.0590   -1.5123    0.1363 C.ar      1 ATP         0.2662
     24 N7         -4.1655   -0.8354   -0.1554 N.pl3     1 ATP        -0.4772
     25 C5         -3.8852   -0.1874   -1.3253 C.ar      1 ATP        -0.1305
     26 C6         -4.7113    0.7160   -2.1458 C.ar      1 ATP         0.7186
     27 N6         -5.9213    1.0209   -1.8021 N.2       1 ATP        -0.8115
     28 N1         -4.0411    1.1673   -3.2764 N.pl3     1 ATP        -0.8400
     29 C2         -2.7403    0.7865   -3.5638 C.ar      1 ATP         0.6671
     30 N3         -1.9921   -0.0108   -2.8519 N.2       1 ATP        -0.5806
     31 C4         -2.6302   -0.4747   -1.7239 C.ar      1 ATP         0.2748
     32 HOG3       -4.4152   -9.5605    0.5152 H         1 ATP         0.4327
     33 HOB2       -5.5823   -3.9649    2.8248 H         1 ATP         0.4701
     34 H5'1       -1.7618   -3.4448    2.4164 H         1 ATP         0.0401
     35 H5'2       -0.1874   -3.8744    3.1341 H         1 ATP         0.0401
     36 H4'         0.8874   -3.6466    0.8805 H         1 ATP         0.1136
     37 H3'        -0.7376   -1.2333    1.9867 H         1 ATP         0.0693
     38 HO3'        1.1626   -1.9325    3.0084 H         1 ATP         0.4124
     39 H2'        -0.0384   -0.0310    0.0096 H         1 ATP         0.0854
     40 HO2'        1.4998   -0.8412   -1.4369 H         1 ATP         0.4367
     41 H1'        -0.4769   -2.1002   -1.8093 H         1 ATP         0.1343
     42 H8         -2.9569   -2.1323    1.0098 H         1 ATP         0.3302
     43 HN62       -6.3169    1.6552   -2.5012 H         1 ATP         0.4160
     44 H2         -2.3612    1.2343   -4.4957 H         1 ATP         0.0756
     45 H45        -4.5223    1.7976   -3.9117 H         1 ATP         0.4587
     46 H46        -5.0218   -0.8132    0.3804 H         1 ATP         0.5254
@<TRIPOS>BOND
     1    1    2 2
     2    1    3 1
     3    1    4 1
     4    1    8 1
     5    4   32 1
     6    5    6 2
     7    5    7 1
     8    5    8 1
     9    5   12 1
    10    7   33 1
    11    9   10 2
    12    9   11 1
    13    9   12 1
    14    9   13 1
    15   13   14 1
    16   14   15 1
    17   14   34 1
    18   14   35 1
    19   15   16 1
    20   15   17 1
    21   15   36 1
    22   16   21 1
    23   17   18 1
    24   17   19 1
    25   17   37 1
    26   18   38 1
    27   19   20 1
    28   19   21 1
    29   19   39 1
    30   20   40 1
    31   21   22 1
    32   21   41 1
    33   22   23 ar
    34   22   31 ar
    35   23   24 ar
    36   23   42 1
    37   24   25 ar
    38   24   46 1
    39   25   26 ar
    40   25   31 ar
    41   26   27 2
    42   26   28 ar
    43   27   43 1
    44   28   29 ar
    45   28   45 1
    46   29   30 ar
    47   29   44 1
    48   30   31 ar
@<TRIPOS>SUBSTRUCTURE
     1 ATP         1 GROUP 0 A     ****
@<TRIPOS>MOLECULE
[[[3,4-dihydroxy-5-(6-imino-7,8-dihydro-1~{H}-purin-8-ylium-9-yl)tetrahydrofuran-2-yl]methoxy-oxido-phosphoryl]oxy-hydroxy-phosphoryl] hydrogen phosphate
   46    48     1     0     0
SMALL
USER_CHARGES

@<TRIPOS>ATOM
      1 PG          1.6666   -6.4897   -2.3095 P.3       1 ATP         1.5595
      2 O1G         0.3839   -7.2587   -2.5354 O.co2     1 ATP        -0.8438
      3 O2G         2.2478   -6.3388   -0.9214 O.co2     1 ATP        -0.8438
      4 O3G         2.8188   -7.1041   -3.2899 O.3       1 ATP        -0.7800
      5 PB          0.5723   -3.7668   -2.6030 P.3       1 ATP         1.9223
      6 O1B        -0.9007   -4.0451   -2.6587 O.2       1 ATP        -0.8953
      7 O2B         1.1265   -3.2951   -1.1594 O.3       1 ATP        -0.8165
      8 O3B         1.5246   -5.0142   -2.9899 O.3       1 ATP        -0.8247
      9 PA          2.6194   -2.0514   -3.8552 P.3       1 ATP         1.6157
     10 O1A         2.5492   -0.8935   -4.8270 O.co2     1 ATP        -0.8629
     11 O2A         3.5431   -3.2220   -4.1125 O.co2     1 ATP        -0.8629
     12 O3A         1.1116   -2.6310   -3.6173 O.3       1 ATP        -0.8191
     13 O5'         2.9216   -1.4836   -2.3516 O.3       1 ATP        -0.5644
     14 C5'         2.2816   -0.2918   -1.9206 C.3       1 ATP         0.2062
     15 C4'         2.7248    0.0226   -0.4980 C.3       1 ATP         0.0971
     16 O4'         2.4697    1.4219   -0.2462 O.3       1 ATP        -0.3662
     17 C3'         1.9404   -0.7419    0.5596 C.3       1 ATP         0.0734
     18 O3'         2.7418   -0.8086    1.7389 O.3       1 ATP        -0.5671
     19 C2'         0.7477    0.1630    0.7858 C.3       1 ATP         0.0745
     20 O2'         0.1373   -0.0577    2.0407 O.3       1 ATP        -0.5794
     21 C1'         1.3733    1.5427    0.6747 C.3       1 ATP         0.3824
     22 N9          0.4520    2.5240    0.1767 N.pl3     1 ATP        -0.4324
     23 C8          0.2216    2.8192   -1.0985 C.ar      1 ATP         0.2662
     24 N7         -0.6906    3.7763   -1.2384 N.pl3     1 ATP        -0.4772
     25 C5         -1.0575    4.1037    0.0366 C.ar      1 ATP        -0.1305
     26 C6         -2.0291    5.0943    0.5330 C.ar      1 ATP         0.7186
     27 N6         -2.7093    5.8371   -0.2800 N.2       1 ATP        -0.8115
     28 N1         -2.1051    5.1136    1.9204 N.pl3     1 ATP        -0.8400
     29 C2         -1.3354    4.2774    2.7129 C.ar      1 ATP         0.6671
     30 N3         -0.4707    3.3945    2.2944 N.2       1 ATP        -0.5806
     31 C4         -0.3734    3.3525    0.9220 C.ar      1 ATP         0.2748
     32 HOG3        3.7159   -6.7085   -3.2609 H         1 ATP         0.4327
     33 HOB2        1.0198   -3.8953   -0.3909 H         1 ATP         0.4701
     34 H5'1        2.5589    0.5217   -2.5976 H         1 ATP         0.0401
     35 H5'2        1.1982   -0.4388   -1.9617 H         1 ATP         0.0401
     36 H4'         3.8044   -0.1397   -0.4040 H         1 ATP         0.1136
     37 H3'         1.6764   -1.7639    0.2728 H         1 ATP         0.0693
     38 HO3'        2.2232   -1.2979    2.3953 H         1 ATP         0.4124
     39 H2'        -0.0011    0.0027    0.0003 H         1 ATP         0.0854
     40 HO2'       -0.6141    0.5574    2.1082 H         1 ATP         0.4367
     41 H1'         1.7826    1.9024    1.6451 H         1 ATP         0.1343
     42 H8          0.7125    2.3429   -1.9292 H         1 ATP         0.3302
     43 HN62       -3.3217    6.4517    0.2629 H         1 ATP         0.4160
     44 H2         -1.5188    4.4223    3.7890 H         1 ATP         0.0756
     45 H45        -2.7470    5.7627    2.3665 H         1 ATP         0.4587
     46 H46        -1.0305    4.1680   -2.1054 H         1 ATP         0.5254
@<TRIPOS>BOND
     1    1    2 2
     2    1    3 1
     3    1    4 1
     4    1    8 1
     5    4   32 1
     6    5    6 2
     7    5    7 1
     8    5    8 1
     9    5   12 1
    10    7   33 1
    11    9   10 2
    12    9   11 1
    13    9   12 1
    14    9   13 1
    15   13   14 1
    16   14   15 1
    17   14   34 1
    18   14   35 1
    19   15   16 1
    20   15   17 1
    21   15   36 1
    22   16   21 1
    23   17   18 1
    24   17   19 1
    25   17   37 1
    26   18   38 1
    27   19   20 1
    28   19   21 1
    29   19   39 1
    30   20   40 1
    31   21   22 1
    32   21   41 1
    33   22   23 ar
    34   22   31 ar
    35   23   24 ar
    36   23   42 1
    37   24   25 ar
    38   24   46 1
    39   25   26 ar
    40   25   31 ar
    41   26   27 2
    42   26   28 ar
    43   27   43 1
    44   28   29 ar
    45   28   45 1
    46   29   30 ar
    47   29   44 1
    48   30   31 ar
@<TRIPOS>SUBSTRUCTURE
     1 ATP         1 GROUP 0 A     ****
@<TRIPOS>MOLECULE
[[[3,4-dihydroxy-5-(6-imino-7,8-dihydro-1~{H}-purin-8-ylium-9-yl)tetrahydrofuran-2-yl]methoxy-oxido-phosphoryl]oxy-hydroxy-phosphoryl] hydrogen phosphate
   46    48     1     0     0
SMALL
USER_CHARGES

@<TRIPOS>ATOM
      1 PG          4.0867   -4.4902   -6.0140 P.3       1 ATP         1.5595
      2 O1G         5.2444   -4.2926   -5.0609 O.co2     1 ATP        -0.8438
      3 O2G         4.2678   -4.3087   -7.5045 O.co2     1 ATP        -0.8438
      4 O3G         3.4409   -5.9658   -5.7461 O.3       1 ATP        -0.7800
      5 PB          2.6587   -1.9707   -5.4564 P.3       1 ATP         1.9223
      6 O1B         2.7788   -1.2654   -6.7749 O.2       1 ATP        -0.8953
      7 O2B         1.2477   -1.7644   -4.6948 O.3       1 ATP        -0.8165
      8 O3B         2.8306   -3.5769   -5.5157 O.3       1 ATP        -0.8247
      9 PA          3.9668   -2.1113   -2.8163 P.3       1 ATP         1.6157
     10 O1A         5.0717   -1.3104   -2.1623 O.co2     1 ATP        -0.8629
     11 O2A         4.0213   -3.6232   -2.8462 O.co2     1 ATP        -0.8629
     12 O3A         3.7625   -1.5756   -4.3451 O.3       1 ATP        -0.8191
     13 O5'         2.5245   -1.6648   -2.1878 O.3       1 ATP        -0.5644
     14 C5'         2.2816   -0.2918   -1.9206 C.3       1 ATP         0.2062
     15 C4'         2.7248    0.0226   -0.4980 C.3       1 ATP         0.0971
     16 O4'         2.4697    1.4219   -0.2462 O.3       1 ATP        -0.3662
     17 C3'         1.9404   -0.7419    0.5596 C.3       1 ATP         0.0734
     18 O3'         2.7418   -0.8086    1.7389 O.3       1 ATP        -0.5671
     19 C2'         0.7477    0.1630    0.7858 C.3       1 ATP         0.0745
     20 O2'         0.1373   -0.0577    2.0407 O.3       1 ATP        -0.5794
     21 C1'         1.3733    1.5427    0.6747 C.3       1 ATP         0.3824
     22 N9          0.4520    2.5240    0.1767 N.pl3     1 ATP        -0.4324
     23 C8          0.2216    2.8192   -1.0985 C.ar      1 ATP         0.2662
     24 N7         -0.6906    3.7763   -1.2384 N.pl3     1 ATP        -0.4772
     25 C5         -1.0575    4.1037    0.0366 C.ar      1 ATP        -0.1305
     26 C6         -2.0291    5.0943    0.5330 C.ar      1 ATP         0.7186
     27 N6         -2.7093    5.8371   -0.2800 N.2       1 ATP        -0.8115
     28 N1         -2.1051    5.1136    1.9204 N.pl3     1 ATP        -0.8400
     29 C2         -1.3354    4.2774    2.7129 C.ar      1 ATP         0.6671
     30 N3         -0.4707    3.3945    2.2944 N.2       1 ATP        -0.5806
     31 C4         -0.3734    3.3525    0.9220 C.ar      1 ATP         0.2748
     32 HOG3        2.6741   -6.2454   -6.2903 H         1 ATP         0.4327
     33 HOB2        0.9700   -0.8565   -4.4479 H         1 ATP         0.4701
     34 H5'1        2.8432    0.3119   -2.6398 H         1 ATP         0.0401
     35 H5'2        1.2128   -0.0927   -2.0428 H         1 ATP         0.0401
     36 H4'         3.8044   -0.1397   -0.4040 H         1 ATP         0.1136
     37 H3'         1.6764   -1.7639    0.2728 H         1 ATP         0.0693
     38 HO3'        2.2232   -1.2979    2.3953 H         1 ATP         0.4124
     39 H2'        -0.0011    0.0027    0.0003 H         1 ATP         0.0854
     40 HO2'       -0.6141    0.5574    2.1082 H         1 ATP         0.4367
     41 H1'         1.7826    1.9024    1.6451 H         1 ATP         0.1343
     42 H8          0.7125    2.3429   -1.9292 H         1 ATP         0.3302
     43 HN62       -3.3217    6.4517    0.2629 H         1 ATP         0.4160
     44 H2         -1.5188    4.4223    3.7890 H         1 ATP         0.0756
     45 H45        -2.7470    5.7627    2.3665 H         1 ATP         0.4587
     46 H46        -1.0305    4.1680   -2.1054 H         1 ATP         0.5254
@<TRIPOS>BOND
     1    1    2 2
     2    1    3 1
     3    1    4 1
     4    1    8 1
     5    4   32 1
     6    5    6 2
     7    5    7 1
     8    5    8 1
     9    5   12 1
    10    7   33 1
    11    9   10 2
    12    9   11 1
    13    9   12 1
    14    9   13 1
    15   13   14 1
    16   14   15 1
    17   14   34 1
    18   14   35 1
    19   15   16 1
    20   15   17 1
    21   15   36 1
    22   16   21 1
    23   17   18 1
    24   17   19 1
    25   17   37 1
    26   18   38 1
    27   19   20 1
    28   19   21 1
    29   19   39 1
    30   20   40 1
    31   21   22 1
    32   21   41 1
    33   22   23 ar
    34   22   31 ar
    35   23   24 ar
    36   23   42 1
    37   24   25 ar
    38   24   46 1
    39   25   26 ar
    40   25   31 ar
    41   26   27 2
    42   26   28 ar
    43   27   43 1
    44   28   29 ar
    45   28   45 1
    46   29   30 ar
    47   29   44 1
    48   30   31 ar
@<TRIPOS>SUBSTRUCTURE
     1 ATP         1 GROUP 0 A     ****
@<TRIPOS>MOLECULE
[[[3,4-dihydroxy-5-(6-imino-7,8-dihydro-1~{H}-purin-8-ylium-9-yl)tetrahydrofuran-2-yl]methoxy-oxido-phosphoryl]oxy-hydroxy-phosphoryl] hydrogen phosphate
   46    48     1     0     0
SMALL
USER_CHARGES

@<TRIPOS>ATOM
      1 PG          6.9065   -2.3562   -0.6105 P.3       1 ATP         1.5595
      2 O1G         5.9834   -3.3056   -1.3413 O.co2     1 ATP        -0.8438
      3 O2G         6.5851   -1.8840    0.7900 O.co2     1 ATP        -0.8438
      4 O3G         8.4103   -2.9924   -0.6107 O.3       1 ATP        -0.7800
      5 PB          6.1907    0.1115   -2.0583 P.3       1 ATP         1.9223
      6 O1B         5.5545    0.9201   -0.9666 O.2       1 ATP        -0.8953
      7 O2B         7.0876    0.9575   -3.1040 O.3       1 ATP        -0.8165
      8 O3B         7.1873   -1.0586   -1.5579 O.3       1 ATP        -0.8247
      9 PA          3.9552   -0.2066   -3.9564 P.3       1 ATP         1.6157
     10 O1A         3.2311   -1.4130   -4.5133 O.co2     1 ATP        -0.8629
     11 O2A         4.4938    0.8658   -4.8783 O.co2     1 ATP        -0.8629
     12 O3A         5.1749   -0.7199   -2.9999 O.3       1 ATP        -0.8191
     13 O5'         3.0213    0.5153   -2.8245 O.3       1 ATP        -0.5644
     14 C5'         2.2816   -0.2918   -1.9206 C.3       1 ATP         0.2062
     15 C4'         2.7248    0.0226   -0.4980 C.3       1 ATP         0.0971
     16 O4'         2.4697    1.4219   -0.2462 O.3       1 ATP        -0.3662
     17 C3'         1.9404   -0.7419    0.5596 C.3       1 ATP         0.0734
     18 O3'         2.7418   -0.8086    1.7389 O.3       1 ATP        -0.5671
     19 C2'         0.7477    0.1630    0.7858 C.3       1 ATP         0.0745
     20 O2'         0.1373   -0.0577    2.0407 O.3       1 ATP        -0.5794
     21 C1'         1.3733    1.5427    0.6747 C.3       1 ATP         0.3824
     22 N9          0.4520    2.5240    0.1767 N.pl3     1 ATP        -0.4324
     23 C8          0.2216    2.8192   -1.0985 C.ar      1 ATP         0.2662
     24 N7         -0.6906    3.7763   -1.2384 N.pl3     1 ATP        -0.4772
     25 C5         -1.0575    4.1037    0.0366 C.ar      1 ATP        -0.1305
     26 C6         -2.0291    5.0943    0.5330 C.ar      1 ATP         0.7186
     27 N6         -2.7093    5.8371   -0.2800 N.2       1 ATP        -0.8115
     28 N1         -2.1051    5.1136    1.9204 N.pl3     1 ATP        -0.8400
     29 C2         -1.3354    4.2774    2.7129 C.ar      1 ATP         0.6671
     30 N3         -0.4707    3.3945    2.2944 N.2       1 ATP        -0.5806
     31 C4         -0.3734    3.3525    0.9220 C.ar      1 ATP         0.2748
     32 HOG3        9.1294   -2.4906   -0.1711 H         1 ATP         0.4327
     33 HOB2        6.6625    1.6726   -3.6237 H         1 ATP         0.4701
     34 H5'1        1.2163   -0.0770   -2.0471 H         1 ATP         0.0401
     35 H5'2        2.4655   -1.3443   -2.1563 H         1 ATP         0.0401
     36 H4'         3.8044   -0.1397   -0.4040 H         1 ATP         0.1136
     37 H3'         1.6764   -1.7639    0.2728 H         1 ATP         0.0693
     38 HO3'        2.2232   -1.2979    2.3953 H         1 ATP         0.4124
     39 H2'        -0.0011    0.0027    0.0003 H         1 ATP         0.0854
     40 HO2'       -0.6141    0.5574    2.1082 H         1 ATP         0.4367
     41 H1'         1.7826    1.9024    1.6451 H         1 ATP         0.1343
     42 H8          0.7125    2.3429   -1.9292 H         1 ATP         0.3302
     43 HN62       -3.3217    6.4517    0.2629 H         1 ATP         0.4160
     44 H2         -1.5188    4.4223    3.7890 H         1 ATP         0.0756
     45 H45        -2.7470    5.7627    2.3665 H         1 ATP         0.4587
     46 H46        -1.0305    4.1680   -2.1054 H         1 ATP         0.5254
@<TRIPOS>BOND
     1    1    2 2
     2    1    3 1
     3    1    4 1
     4    1    8 1
     5    4   32 1
     6    5    6 2
     7    5    7 1
     8    5    8 1
     9    5   12 1
    10    7   33 1
    11    9   10 2
    12    9   11 1
    13    9   12 1
    14    9   13 1
    15   13   14 1
    16   14   15 1
    17   14   34 1
    18   14   35 1
    19   15   16 1
    20   15   17 1
    21   15   36 1
    22   16   21 1
    23   17   18 1
    24   17   19 1
    25   17   37 1
    26   18   38 1
    27   19   20 1
    28   19   21 1
    29   19   39 1
    30   20   40 1
    31   21   22 1
    32   21   41 1
    33   22   23 ar
    34   22   31 ar
    35   23   24 ar
    36   23   42 1
    37   24   25 ar
    38   24   46 1
    39   25   26 ar
    40   25   31 ar
    41   26   27 2
    42   26   28 ar
    43   27   43 1
    44   28   29 ar
    45   28   45 1
    46   29   30 ar
    47   29   44 1
    48   30   31 ar
@<TRIPOS>SUBSTRUCTURE
     1 ATP         1 GROUP 0 A     ****
@<TRIPOS>MOLECULE
[[[3,4-dihydroxy-5-(6-imino-7,8-dihydro-1~{H}-purin-8-ylium-9-yl)tetrahydrofuran-2-yl]methoxy-oxido-phosphoryl]oxy-hydroxy-phosphoryl] hydrogen phosphate
   46    48     1     0     0
SMALL
USER_CHARGES

@<TRIPOS>ATOM
      1 PG          0.2250   -0.7011    7.4834 P.3       1 ATP         1.5595
      2 O1G        -0.8114    0.0192    8.3169 O.co2     1 ATP        -0.8438
      3 O2G         1.1009    0.0549    6.5094 O.co2     1 ATP        -0.8438
      4 O3G         1.1858   -1.5635    8.4830 O.3       1 ATP        -0.7800
      5 PB         -1.6044   -1.9374    5.5282 P.3       1 ATP         1.9223
      6 O1B        -2.9029   -1.2727    5.8778 O.2       1 ATP        -0.8953
      7 O2B        -0.8253   -1.2973    4.2645 O.3       1 ATP        -0.8165
      8 O3B        -0.4932   -1.9396    6.7022 O.3       1 ATP        -0.8247
      9 PA         -0.5251   -4.5707    4.7523 P.3       1 ATP         1.6157
     10 O1A        -1.1708   -5.8915    4.3939 O.co2     1 ATP        -0.8629
     11 O2A         0.5743   -4.5036    5.7899 O.co2     1 ATP        -0.8629
     12 O3A        -1.6935   -3.5111    5.1745 O.3       1 ATP        -0.8191
     13 O5'         0.0118   -3.8395    3.3916 O.3       1 ATP        -0.5644
     14 C5'        -0.7840   -3.8935    2.2172 C.3       1 ATP         0.2062
     15 C4'        -0.0724   -3.1466    1.1027 C.3       1 ATP         0.0971
     16 O4'        -0.8674   -3.1929   -0.0945 O.3       1 ATP        -0.3662
     17 C3'         0.1338   -1.6715    1.4027 C.3       1 ATP         0.0734
     18 O3'         1.2893   -1.4445    2.1808 O.3       1 ATP        -0.5671
     19 C2'         0.2158   -1.0724    0.0128 C.3       1 ATP         0.0745
     20 O2'         1.5141   -1.2448   -0.5513 O.3       1 ATP        -0.5794
     21 C1'        -0.7897   -1.9176   -0.7583 C.3       1 ATP         0.3824
     22 N9         -2.1040   -1.3333   -0.7704 N.pl3     1 ATP        -0.4324
     23 C8         -3.0590   -1.5123    0.1363 C.ar      1 ATP         0.2662
     24 N7         -4.1655   -0.8354   -0.1554 N.pl3     1 ATP        -0.4772
     25 C5         -3.8852   -0.1874   -1.3253 C.ar      1 ATP        -0.1305
     26 C6         -4.7113    0.7160   -2.1458 C.ar      1 ATP         0.7186
     27 N6         -5.9213    1.0209   -1.8021 N.2       1 ATP        -0.8115
     28 N1         -4.0411    1.1673   -3.2764 N.pl3     1 ATP        -0.8400
     29 C2         -2.7403    0.7865   -3.5638 C.ar      1 ATP         0.6671
     30 N3         -1.9921   -0.0108   -2.8519 N.2       1 ATP        -0.5806
     31 C4         -2.6302   -0.4747   -1.7239 C.ar      1 ATP         0.2748
     32 HOG3        1.9140   -2.0907    8.0906 H         1 ATP         0.4327
     33 HOB2       -0.5500   -0.3566    4.3037 H         1 ATP         0.4701
     34 H5'1       -0.9348   -4.9415    1.9415 H         1 ATP         0.0401
     35 H5'2       -1.7548   -3.4350    2.4278 H         1 ATP         0.0401
     36 H4'         0.8874   -3.6466    0.8805 H         1 ATP         0.1136
     37 H3'        -0.7376   -1.2333    1.9867 H         1 ATP         0.0693
     38 HO3'        1.1626   -1.9325    3.0084 H         1 ATP         0.4124
     39 H2'        -0.0384   -0.0310    0.0096 H         1 ATP         0.0854
     40 HO2'        2.1463   -0.7958    0.0370 H         1 ATP         0.4367
     41 H1'        -0.4769   -2.1002   -1.8093 H         1 ATP         0.1343
     42 H8         -2.9569   -2.1323    1.0098 H         1 ATP         0.3302
     43 HN62       -6.3169    1.6552   -2.5012 H         1 ATP         0.4160
     44 H2         -2.3612    1.2343   -4.4957 H         1 ATP         0.0756
     45 H45        -4.5223    1.7976   -3.9117 H         1 ATP         0.4587
     46 H46        -5.0218   -0.8132    0.3804 H         1 ATP         0.5254
@<TRIPOS>BOND
     1    1    2 2
     2    1    3 1
     3    1    4 1
     4    1    8 1
     5    4   32 1
     6    5    6 2
     7    5    7 1
     8    5    8 1
     9    5   12 1
    10    7   33 1
    11    9   10 2
    12    9   11 1
    13    9   12 1
    14    9   13 1
    15   13   14 1
    16   14   15 1
    17   14   34 1
    18   14   35 1
    19   15   16 1
    20   15   17 1
    21   15   36 1
    22   16   21 1
    23   17   18 1
    24   17   19 1
    25   17   37 1
    26   18   38 1
    27   19   20 1
    28   19   21 1
    29   19   39 1
    30   20   40 1
    31   21   22 1
    32   21   41 1
    33   22   23 ar
    34   22   31 ar
    35   23   24 ar
    36   23   42 1
    37   24   25 ar
    38   24   46 1
    39   25   26 ar
    40   25   31 ar
    41   26   27 2
    42   26   28 ar
    43   27   43 1
    44   28   29 ar
    45   28   45 1
    46   29   30 ar
    47   29   44 1
    48   30   31 ar
@<TRIPOS>SUBSTRUCTURE
     1 ATP         1 GROUP 0 A     ****
@<TRIPOS>MOLECULE
[[[3,4-dihydroxy-5-(6-imino-7,8-dihydro-1~{H}-purin-8-ylium-9-yl)tetrahydrofuran-2-yl]methoxy-oxido-phosphoryl]oxy-hydroxy-phosphoryl] hydrogen phosphate
   46    48     1     0     0
SMALL
USER_CHARGES

@<TRIPOS>ATOM
      1 PG          3.1492    0.5857   -6.6227 P.3       1 ATP         1.5595
      2 O1G         3.6541    0.7956   -5.2125 O.co2     1 ATP        -0.8438
      3 O2G         2.2256    1.5903   -7.2748 O.co2     1 ATP        -0.8438
      4 O3G         4.4334    0.3495   -7.6032 O.3       1 ATP        -0.7800
      5 PB          1.1503   -1.5026   -6.0388 P.3       1 ATP         1.9223
      6 O1B        -0.1263   -0.7931   -6.3810 O.2       1 ATP        -0.8953
      7 O2B         1.1910   -3.0695   -6.4349 O.3       1 ATP        -0.8165
      8 O3B         2.4811   -0.8983   -6.7291 O.3       1 ATP        -0.8247
      9 PA          2.8603   -2.1314   -3.7189 P.3       1 ATP         1.6157
     10 O1A         4.1108   -1.4269   -4.1982 O.co2     1 ATP        -0.8629
     11 O2A         2.7468   -3.6387   -3.7889 O.co2     1 ATP        -0.8629
     12 O3A         1.5677   -1.4844   -4.4784 O.3       1 ATP        -0.8191
     13 O5'         2.5245   -1.6648   -2.1878 O.3       1 ATP        -0.5644
     14 C5'         2.2816   -0.2918   -1.9206 C.3       1 ATP         0.2062
     15 C4'         2.7248    0.0226   -0.4980 C.3       1 ATP         0.0971
     16 O4'         2.4697    1.4219   -0.2462 O.3       1 ATP        -0.3662
     17 C3'         1.9404   -0.7419    0.5596 C.3       1 ATP         0.0734
     18 O3'         2.7418   -0.8086    1.7389 O.3       1 ATP        -0.5671
     19 C2'         0.7477    0.1630    0.7858 C.3       1 ATP         0.0745
     20 O2'         0.1373   -0.0577    2.0407 O.3       1 ATP        -0.5794
     21 C1'         1.3733    1.5427    0.6747 C.3       1 ATP         0.3824
     22 N9          0.4520    2.5240    0.1767 N.pl3     1 ATP        -0.4324
     23 C8          0.2216    2.8192   -1.0985 C.ar      1 ATP         0.2662
     24 N7         -0.6906    3.7763   -1.2384 N.pl3     1 ATP        -0.4772
     25 C5         -1.0575    4.1037    0.0366 C.ar      1 ATP        -0.1305
     26 C6         -2.0291    5.0943    0.5330 C.ar      1 ATP         0.7186
     27 N6         -2.7093    5.8371   -0.2800 N.2       1 ATP        -0.8115
     28 N1         -2.1051    5.1136    1.9204 N.pl3     1 ATP        -0.8400
     29 C2         -1.3354    4.2774    2.7129 C.ar      1 ATP         0.6671
     30 N3         -0.4707    3.3945    2.2944 N.2       1 ATP        -0.5806
     31 C4         -0.3734    3.3525    0.9220 C.ar      1 ATP         0.2748
     32 HOG3        4.2696    0.1975   -8.5583 H         1 ATP         0.4327
     33 HOB2        0.5280   -3.6758   -6.0412 H         1 ATP         0.4701
     34 H5'1        2.8432    0.3119   -2.6398 H         1 ATP         0.0401
     35 H5'2        1.2128   -0.0927   -2.0428 H         1 ATP         0.0401
     36 H4'         3.8044   -0.1397   -0.4040 H         1 ATP         0.1136
     37 H3'         1.6764   -1.7639    0.2728 H         1 ATP         0.0693
     38 HO3'        2.2232   -1.2979    2.3953 H         1 ATP         0.4124
     39 H2'        -0.0011    0.0027    0.0003 H         1 ATP         0.0854
     40 HO2'       -0.6141    0.5574    2.1082 H         1 ATP         0.4367
     41 H1'         1.7826    1.9024    1.6451 H         1 ATP         0.1343
     42 H8          0.7125    2.3429   -1.9292 H         1 ATP         0.3302
     43 HN62       -3.3217    6.4517    0.2629 H         1 ATP         0.4160
     44 H2         -1.5188    4.4223    3.7890 H         1 ATP         0.0756
     45 H45        -2.7470    5.7627    2.3665 H         1 ATP         0.4587
     46 H46        -1.0305    4.1680   -2.1054 H         1 ATP         0.5254
@<TRIPOS>BOND
     1    1    2 2
     2    1    3 1
     3    1    4 1
     4    1    8 1
     5    4   32 1
     6    5    6 2
     7    5    7 1
     8    5    8 1
     9    5   12 1
    10    7   33 1
    11    9   10 2
    12    9   11 1
    13    9   12 1
    14    9   13 1
    15   13   14 1
    16   14   15 1
    17   14   34 1
    18   14   35 1
    19   15   16 1
    20   15   17 1
    21   15   36 1
    22   16   21 1
    23   17   18 1
    24   17   19 1
    25   17   37 1
    26   18   38 1
    27   19   20 1
    28   19   21 1
    29   19   39 1
    30   20   40 1
    31   21   22 1
    32   21   41 1
    33   22   23 ar
    34   22   31 ar
    35   23   24 ar
    36   23   42 1
    37   24   25 ar
    38   24   46 1
    39   25   26 ar
    40   25   31 ar
    41   26   27 2
    42   26   28 ar
    43   27   43 1
    44   28   29 ar
    45   28   45 1
    46   29   30 ar
    47   29   44 1
    48   30   31 ar
@<TRIPOS>SUBSTRUCTURE
     1 ATP         1 GROUP 0 A     ****
@<TRIPOS>MOLECULE
[[[3,4-dihydroxy-5-(6-imino-7,8-dihydro-1~{H}-purin-8-ylium-9-yl)tetrahydrofuran-2-yl]methoxy-oxido-phosphoryl]oxy-hydroxy-phosphoryl] hydrogen phosphate
   46    48     1     0     0
SMALL
USER_CHARGES

@<TRIPOS>ATOM
      1 PG          6.0217   -0.2608   -6.5831 P.3       1 ATP         1.5595
      2 O1G         7.0613   -1.3552   -6.4882 O.co2     1 ATP        -0.8438
      3 O2G         5.8406    0.7382   -5.4621 O.co2     1 ATP        -0.8438
      4 O3G         6.2581    0.5593   -7.9751 O.3       1 ATP        -0.7800
      5 PB          3.6349   -1.9126   -6.0608 P.3       1 ATP         1.9223
      6 O1B         2.3582   -2.3332   -6.7266 O.2       1 ATP        -0.8953
      7 O2B         4.6220   -3.1234   -5.6445 O.3       1 ATP        -0.8165
      8 O3B         4.5779   -0.9329   -6.9348 O.3       1 ATP        -0.8247
      9 PA          2.7406    0.3767   -4.4296 P.3       1 ATP         1.6157
     10 O1A         1.2546    0.2225   -4.6703 O.co2     1 ATP        -0.8629
     11 O2A         3.5320    1.4518   -5.1421 O.co2     1 ATP        -0.8629
     12 O3A         3.4692   -1.0595   -4.6990 O.3       1 ATP        -0.8191
     13 O5'         3.0213    0.5153   -2.8245 O.3       1 ATP        -0.5644
     14 C5'         2.2816   -0.2918   -1.9206 C.3       1 ATP         0.2062
     15 C4'         2.7248    0.0226   -0.4980 C.3       1 ATP         0.0971
     16 O4'         2.4697    1.4219   -0.2462 O.3       1 ATP        -0.3662
     17 C3'         1.9404   -0.7419    0.5596 C.3       1 ATP         0.0734
     18 O3'         2.7418   -0.8086    1.7389 O.3       1 ATP        -0.5671
     19 C2'         0.7477    0.1630    0.7858 C.3       1 ATP         0.0745
     20 O2'         0.1373   -0.0577    2.0407 O.3       1 ATP        -0.5794
     21 C1'         1.3733    1.5427    0.6747 C.3       1 ATP         0.3824
     22 N9          0.4520    2.5240    0.1767 N.pl3     1 ATP        -0.4324
     23 C8          0.2216    2.8192   -1.0985 C.ar      1 ATP         0.2662
     24 N7         -0.6906    3.7763   -1.2384 N.pl3     1 ATP        -0.4772
     25 C5         -1.0575    4.1037    0.0366 C.ar      1 ATP        -0.1305
     26 C6         -2.0291    5.0943    0.5330 C.ar      1 ATP         0.7186
     27 N6         -2.7093    5.8371   -0.2800 N.2       1 ATP        -0.8115
     28 N1         -2.1051    5.1136    1.9204 N.pl3     1 ATP        -0.8400
     29 C2         -1.3354    4.2774    2.7129 C.ar      1 ATP         0.6671
     30 N3         -0.4707    3.3945    2.2944 N.2       1 ATP        -0.5806
     31 C4         -0.3734    3.3525    0.9220 C.ar      1 ATP         0.2748
     32 HOG3        5.6585    1.3070   -8.1839 H         1 ATP         0.4327
     33 HOB2        4.2988   -3.8047   -5.0171 H         1 ATP         0.4701
     34 H5'1        1.2163   -0.0770   -2.0471 H         1 ATP         0.0401
     35 H5'2        2.4655   -1.3443   -2.1563 H         1 ATP         0.0401
     36 H4'         3.8044   -0.1397   -0.4040 H         1 ATP         0.1136
     37 H3'         1.6764   -1.7639    0.2728 H         1 ATP         0.0693
     38 HO3'        3.5554   -1.2733    1.4914 H         1 ATP         0.4124
     39 H2'        -0.0011    0.0027    0.0003 H         1 ATP         0.0854
     40 HO2'       -0.1563   -0.9855    2.0596 H         1 ATP         0.4367
     41 H1'         1.7826    1.9024    1.6451 H         1 ATP         0.1343
     42 H8          0.7125    2.3429   -1.9292 H         1 ATP         0.3302
     43 HN62       -3.3217    6.4517    0.2629 H         1 ATP         0.4160
     44 H2         -1.5188    4.4223    3.7890 H         1 ATP         0.0756
     45 H45        -2.7470    5.7627    2.3665 H         1 ATP         0.4587
     46 H46        -1.0305    4.1680   -2.1054 H         1 ATP         0.5254
@<TRIPOS>BOND
     1    1    2 2
     2    1    3 1
     3    1    4 1
     4    1    8 1
     5    4   32 1
     6    5    6 2
     7    5    7 1
     8    5    8 1
     9    5   12 1
    10    7   33 1
    11    9   10 2
    12    9   11 1
    13    9   12 1
    14    9   13 1
    15   13   14 1
    16   14   15 1
    17   14   34 1
    18   14   35 1
    19   15   16 1
    20   15   17 1
    21   15   36 1
    22   16   21 1
    23   17   18 1
    24   17   19 1
    25   17   37 1
    26   18   38 1
    27   19   20 1
    28   19   21 1
    29   19   39 1
    30   20   40 1
    31   21   22 1
    32   21   41 1
    33   22   23 ar
    34   22   31 ar
    35   23   24 ar
    36   23   42 1
    37   24   25 ar
    38   24   46 1
    39   25   26 ar
    40   25   31 ar
    41   26   27 2
    42   26   28 ar
    43   27   43 1
    44   28   29 ar
    45   28   45 1
    46   29   30 ar
    47   29   44 1
    48   30   31 ar
@<TRIPOS>SUBSTRUCTURE
     1 ATP         1 GROUP 0 A     ****
@<TRIPOS>MOLECULE
[[[3,4-dihydroxy-5-(6-imino-7,8-dihydro-1~{H}-purin-8-ylium-9-yl)tetrahydrofuran-2-yl]methoxy-oxido-phosphoryl]oxy-hydroxy-phosphoryl] hydrogen phosphate
   46    48     1     0     0
SMALL
USER_CHARGES

@<TRIPOS>ATOM
      1 PG          1.0299   -9.1570    4.7950 P.3       1 ATP         1.5595
      2 O1G        -0.4805   -9.2072    4.7308 O.co2     1 ATP        -0.8438
      3 O2G         1.7582   -9.3395    6.1078 O.co2     1 ATP        -0.8438
      4 O3G         1.6302  -10.2256    3.7162 O.3       1 ATP        -0.7800
      5 PB          1.3570   -6.2373    4.5376 P.3       1 ATP         1.9223
      6 O1B         1.9363   -5.8862    5.8761 O.2       1 ATP        -0.8953
      7 O2B         1.9562   -5.4007    3.2908 O.3       1 ATP        -0.8165
      8 O3B         1.5430   -7.7791    4.0892 O.3       1 ATP        -0.8247
      9 PA         -1.2302   -6.3289    3.1239 P.3       1 ATP         1.6157
     10 O1A        -2.6253   -5.8653    3.4829 O.co2     1 ATP        -0.8629
     11 O2A        -0.9875   -7.7370    2.6259 O.co2     1 ATP        -0.8629
     12 O3A        -0.2419   -6.0574    4.3950 O.3       1 ATP        -0.8191
     13 O5'        -0.5687   -5.2869    2.0510 O.3       1 ATP        -0.5644
     14 C5'        -0.7840   -3.8935    2.2172 C.3       1 ATP         0.2062
     15 C4'        -0.0724   -3.1466    1.1027 C.3       1 ATP         0.0971
     16 O4'        -0.8674   -3.1929   -0.0945 O.3       1 ATP        -0.3662
     17 C3'         0.1338   -1.6715    1.4027 C.3       1 ATP         0.0734
     18 O3'         1.2893   -1.4445    2.1808 O.3       1 ATP        -0.5671
     19 C2'         0.2158   -1.0724    0.0128 C.3       1 ATP         0.0745
     20 O2'         1.5141   -1.2448   -0.5513 O.3       1 ATP        -0.5794
     21 C1'        -0.7897   -1.9176   -0.7583 C.3       1 ATP         0.3824
     22 N9         -2.1040   -1.3333   -0.7704 N.pl3     1 ATP        -0.4324
     23 C8         -3.0590   -1.5123    0.1363 C.ar      1 ATP         0.2662
     24 N7         -4.1655   -0.8354   -0.1554 N.pl3     1 ATP        -0.4772
     25 C5         -3.8852   -0.1874   -1.3253 C.ar      1 ATP        -0.1305
     26 C6         -4.7113    0.7160   -2.1458 C.ar      1 ATP         0.7186
     27 N6         -5.9213    1.0209   -1.8021 N.2       1 ATP        -0.8115
     28 N1         -4.0411    1.1673   -3.2764 N.pl3     1 ATP        -0.8400
     29 C2         -2.7403    0.7865   -3.5638 C.ar      1 ATP         0.6671
     30 N3         -1.9921   -0.0108   -2.8519 N.2       1 ATP        -0.5806
     31 C4         -2.6302   -0.4747   -1.7239 C.ar      1 ATP         0.2748
     32 HOG3        2.6041  -10.3119    3.6372 H         1 ATP         0.4327
     33 HOB2        1.8623   -4.4243    3.2856 H         1 ATP         0.4701
     34 H5'1       -1.8598   -3.6968    2.1850 H         1 ATP         0.0401
     35 H5'2       -0.3933   -3.5903    3.1931 H         1 ATP         0.0401
     36 H4'         0.8874   -3.6466    0.8805 H         1 ATP         0.1136
     37 H3'        -0.7376   -1.2333    1.9867 H         1 ATP         0.0693
     38 HO3'        1.3408   -0.4870    2.3219 H         1 ATP         0.4124
     39 H2'        -0.0384   -0.0310    0.0096 H         1 ATP         0.0854
     40 HO2'        2.1463   -0.7958    0.0370 H         1 ATP         0.4367
     41 H1'        -0.4769   -2.1002   -1.8093 H         1 ATP         0.1343
     42 H8         -2.9569   -2.1323    1.0098 H         1 ATP         0.3302
     43 HN62       -6.3169    1.6552   -2.5012 H         1 ATP         0.4160
     44 H2         -2.3612    1.2343   -4.4957 H         1 ATP         0.0756
     45 H45        -4.5223    1.7976   -3.9117 H         1 ATP         0.4587
     46 H46        -5.0218   -0.8132    0.3804 H         1 ATP         0.5254
@<TRIPOS>BOND
     1    1    2 2
     2    1    3 1
     3    1    4 1
     4    1    8 1
     5    4   32 1
     6    5    6 2
     7    5    7 1
     8    5    8 1
     9    5   12 1
    10    7   33 1
    11    9   10 2
    12    9   11 1
    13    9   12 1
    14    9   13 1
    15   13   14 1
    16   14   15 1
    17   14   34 1
    18   14   35 1
    19   15   16 1
    20   15   17 1
    21   15   36 1
    22   16   21 1
    23   17   18 1
    24   17   19 1
    25   17   37 1
    26   18   38 1
    27   19   20 1
    28   19   21 1
    29   19   39 1
    30   20   40 1
    31   21   22 1
    32   21   41 1
    33   22   23 ar
    34   22   31 ar
    35   23   24 ar
    36   23   42 1
    37   24   25 ar
    38   24   46 1
    39   25   26 ar
    40   25   31 ar
    41   26   27 2
    42   26   28 ar
    43   27   43 1
    44   28   29 ar
    45   28   45 1
    46   29   30 ar
    47   29   44 1
    48   30   31 ar
@<TRIPOS>SUBSTRUCTURE
     1 ATP         1 GROUP 0 A     ****
@<TRIPOS>MOLECULE
[[[3,4-dihydroxy-5-(6-imino-7,8-dihydro-1~{H}-purin-8-ylium-9-yl)tetrahydrofuran-2-yl]methoxy-oxido-phosphoryl]oxy-hydroxy-phosphoryl] hydrogen phosphate
   46    48     1     0     0
SMALL
USER_CHARGES

@<TRIPOS>ATOM
      1 PG         -0.2811   -5.9808   -1.8153 P.3       1 ATP         1.5595
      2 O1G         0.6152   -7.1034   -2.2889 O.co2     1 ATP        -0.8438
      3 O2G        -1.7848   -6.1420   -1.7975 O.co2     1 ATP        -0.8438
      4 O3G         0.2085   -5.5195   -0.3274 O.3       1 ATP        -0.7800
      5 PB         -0.4192   -3.1020   -2.4410 P.3       1 ATP         1.9223
      6 O1B        -1.8978   -2.9052   -2.6000 O.2       1 ATP        -0.8953
      7 O2B         0.1786   -2.6722   -1.0017 O.3       1 ATP        -0.8165
      8 O3B         0.0985   -4.6213   -2.6325 O.3       1 ATP        -0.8247
      9 PA          2.1371   -2.2715   -3.6563 P.3       1 ATP         1.6157
     10 O1A         2.4976   -1.2664   -4.7285 O.co2     1 ATP        -0.8629
     11 O2A         2.6455   -3.6950   -3.7283 O.co2     1 ATP        -0.8629
     12 O3A         0.5123   -2.3150   -3.5004 O.3       1 ATP        -0.8191
     13 O5'         2.5245   -1.6648   -2.1878 O.3       1 ATP        -0.5644
     14 C5'         2.2816   -0.2918   -1.9206 C.3       1 ATP         0.2062
     15 C4'         2.7248    0.0226   -0.4980 C.3       1 ATP         0.0971
     16 O4'         2.4697    1.4219   -0.2462 O.3       1 ATP        -0.3662
     17 C3'         1.9404   -0.7419    0.5596 C.3       1 ATP         0.0734
     18 O3'         2.7418   -0.8086    1.7389 O.3       1 ATP        -0.5671
     19 C2'         0.7477    0.1630    0.7858 C.3       1 ATP         0.0745
     20 O2'         0.1373   -0.0577    2.0407 O.3       1 ATP        -0.5794
     21 C1'         1.3733    1.5427    0.6747 C.3       1 ATP         0.3824
     22 N9          0.4520    2.5240    0.1767 N.pl3     1 ATP        -0.4324
     23 C8          0.2216    2.8192   -1.0985 C.ar      1 ATP         0.2662
     24 N7         -0.6906    3.7763   -1.2384 N.pl3     1 ATP        -0.4772
     25 C5         -1.0575    4.1037    0.0366 C.ar      1 ATP        -0.1305
     26 C6         -2.0291    5.0943    0.5330 C.ar      1 ATP         0.7186
     27 N6         -2.7093    5.8371   -0.2800 N.2       1 ATP        -0.8115
     28 N1         -2.1051    5.1136    1.9204 N.pl3     1 ATP        -0.8400
     29 C2         -1.3354    4.2774    2.7129 C.ar      1 ATP         0.6671
     30 N3         -0.4707    3.3945    2.2944 N.2       1 ATP        -0.5806
     31 C4         -0.3734    3.3525    0.9220 C.ar      1 ATP         0.2748
     32 HOG3        1.1244   -5.1850   -0.2203 H         1 ATP         0.4327
     33 HOB2       -0.1579   -3.1187   -0.1957 H         1 ATP         0.4701
     34 H5'1        2.8432    0.3119   -2.6398 H         1 ATP         0.0401
     35 H5'2        1.2128   -0.0927   -2.0428 H         1 ATP         0.0401
     36 H4'         3.8044   -0.1397   -0.4040 H         1 ATP         0.1136
     37 H3'         1.6764   -1.7639    0.2728 H         1 ATP         0.0693
     38 HO3'        2.2232   -1.2979    2.3953 H         1 ATP         0.4124
     39 H2'        -0.0011    0.0027    0.0003 H         1 ATP         0.0854
     40 HO2'       -0.6141    0.5574    2.1082 H         1 ATP         0.4367
     41 H1'         1.7826    1.9024    1.6451 H         1 ATP         0.1343
     42 H8          0.7125    2.3429   -1.9292 H         1 ATP         0.3302
     43 HN62       -3.3217    6.4517    0.2629 H         1 ATP         0.4160
     44 H2         -1.5188    4.4223    3.7890 H         1 ATP         0.0756
     45 H45        -2.7470    5.7627    2.3665 H         1 ATP         0.4587
     46 H46        -1.0305    4.1680   -2.1054 H         1 ATP         0.5254
@<TRIPOS>BOND
     1    1    2 2
     2    1    3 1
     3    1    4 1
     4    1    8 1
     5    4   32 1
     6    5    6 2
     7    5    7 1
     8    5    8 1
     9    5   12 1
    10    7   33 1
    11    9   10 2
    12    9   11 1
    13    9   12 1
    14    9   13 1
    15   13   14 1
    16   14   15 1
    17   14   34 1
    18   14   35 1
    19   15   16 1
    20   15   17 1
    21   15   36 1
    22   16   21 1
    23   17   18 1
    24   17   19 1
    25   17   37 1
    26   18   38 1
    27   19   20 1
    28   19   21 1
    29   19   39 1
    30   20   40 1
    31   21   22 1
    32   21   41 1
    33   22   23 ar
    34   22   31 ar
    35   23   24 ar
    36   23   42 1
    37   24   25 ar
    38   24   46 1
    39   25   26 ar
    40   25   31 ar
    41   26   27 2
    42   26   28 ar
    43   27   43 1
    44   28   29 ar
    45   28   45 1
    46   29   30 ar
    47   29   44 1
    48   30   31 ar
@<TRIPOS>SUBSTRUCTURE
     1 ATP         1 GROUP 0 A     ****
@<TRIPOS>MOLECULE
[[[3,4-dihydroxy-5-(6-imino-7,8-dihydro-1~{H}-purin-8-ylium-9-yl)tetrahydrofuran-2-yl]methoxy-oxido-phosphoryl]oxy-hydroxy-phosphoryl] hydrogen phosphate
   46    48     1     0     0
SMALL
USER_CHARGES

@<TRIPOS>ATOM
      1 PG          3.4671    4.8008   -0.7753 P.3       1 ATP         1.5595
      2 O1G         4.5996    5.6341   -1.3328 O.co2     1 ATP        -0.8438
      3 O2G         3.7171    3.4080   -0.2414 O.co2     1 ATP        -0.8438
      4 O3G         2.7041    5.6689    0.3782 O.3       1 ATP        -0.7800
      5 PB          2.2098    4.0482   -3.3347 P.3       1 ATP         1.9223
      6 O1B         0.9112    4.2052   -4.0691 O.2       1 ATP        -0.8953
      7 O2B         3.5036    4.6512   -4.0935 O.3       1 ATP        -0.8165
      8 O3B         2.2644    4.7408   -1.8752 O.3       1 ATP        -0.8247
      9 PA          2.9230    1.2546   -3.9578 P.3       1 ATP         1.6157
     10 O1A         4.1492    1.5455   -4.7953 O.co2     1 ATP        -0.8629
     11 O2A         1.6175    0.8553   -4.6106 O.co2     1 ATP        -0.8629
     12 O3A         2.6378    2.5313   -2.9807 O.3       1 ATP        -0.8191
     13 O5'         3.2903    0.1346   -2.8241 O.3       1 ATP        -0.5644
     14 C5'         2.2816   -0.2918   -1.9206 C.3       1 ATP         0.2062
     15 C4'         2.7248    0.0226   -0.4980 C.3       1 ATP         0.0971
     16 O4'         2.4697    1.4219   -0.2462 O.3       1 ATP        -0.3662
     17 C3'         1.9404   -0.7419    0.5596 C.3       1 ATP         0.0734
     18 O3'         2.7418   -0.8086    1.7389 O.3       1 ATP        -0.5671
     19 C2'         0.7477    0.1630    0.7858 C.3       1 ATP         0.0745
     20 O2'         0.1373   -0.0577    2.0407 O.3       1 ATP        -0.5794
     21 C1'         1.3733    1.5427    0.6747 C.3       1 ATP         0.3824
     22 N9          0.4520    2.5240    0.1767 N.pl3     1 ATP        -0.4324
     23 C8         -0.2004    2.4829   -0.9804 C.ar      1 ATP         0.2662
     24 N7         -0.9830    3.5431   -1.1568 N.pl3     1 ATP        -0.4772
     25 C5         -0.8095    4.3012   -0.0331 C.ar      1 ATP        -0.1305
     26 C6         -1.4065    5.5904    0.3585 C.ar      1 ATP         0.7186
     27 N6         -2.2501    6.2030   -0.4084 N.2       1 ATP        -0.8115
     28 N1         -0.9585    6.0272    1.5994 N.pl3     1 ATP        -0.8400
     29 C2         -0.0508    5.3009    2.3532 C.ar      1 ATP         0.6671
     30 N3          0.4890    4.1592    2.0257 N.2       1 ATP        -0.5806
     31 C4          0.0637    3.7006    0.7995 C.ar      1 ATP         0.2748
     32 HOG3        1.9397    5.2623    0.8392 H         1 ATP         0.4327
     33 HOB2        3.7435    4.2976   -4.9765 H         1 ATP         0.4701
     34 H5'1        1.3514    0.2330   -2.1577 H         1 ATP         0.0401
     35 H5'2        2.1280   -1.3678   -2.0460 H         1 ATP         0.0401
     36 H4'         3.8044   -0.1397   -0.4040 H         1 ATP         0.1136
     37 H3'         1.6764   -1.7639    0.2728 H         1 ATP         0.0693
     38 HO3'        2.2232   -1.2979    2.3953 H         1 ATP         0.4124
     39 H2'        -0.0011    0.0027    0.0003 H         1 ATP         0.0854
     40 HO2'       -0.6141    0.5574    2.1082 H         1 ATP         0.4367
     41 H1'         1.7826    1.9024    1.6451 H         1 ATP         0.1343
     42 H8         -0.1116    1.6863   -1.6984 H         1 ATP         0.3302
     43 HN62       -2.5420    7.0730    0.0447 H         1 ATP         0.4160
     44 H2          0.1969    5.7893    3.3086 H         1 ATP         0.0756
     45 H45        -1.3097    6.9080    1.9642 H         1 ATP         0.4587
     46 H46        -1.5735    3.7351   -1.9538 H         1 ATP         0.5254
@<TRIPOS>BOND
     1    1    2 2
     2    1    3 1
     3    1    4 1
     4    1    8 1
     5    4   32 1
     6    5    6 2
     7    5    7 1
     8    5    8 1
     9    5   12 1
    10    7   33 1
    11    9   10 2
    12    9   11 1
    13    9   12 1
    14    9   13 1
    15   13   14 1
    16   14   15 1
    17   14   34 1
    18   14   35 1
    19   15   16 1
    20   15   17 1
    21   15   36 1
    22   16   21 1
    23   17   18 1
    24   17   19 1
    25   17   37 1
    26   18   38 1
    27   19   20 1
    28   19   21 1
    29   19   39 1
    30   20   40 1
    31   21   22 1
    32   21   41 1
    33   22   23 ar
    34   22   31 ar
    35   23   24 ar
    36   23   42 1
    37   24   25 ar
    38   24   46 1
    39   25   26 ar
    40   25   31 ar
    41   26   27 2
    42   26   28 ar
    43   27   43 1
    44   28   29 ar
    45   28   45 1
    46   29   30 ar
    47   29   44 1
    48   30   31 ar
@<TRIPOS>SUBSTRUCTURE
     1 ATP         1 GROUP 0 A     ****
@<TRIPOS>MOLECULE
[[[3,4-dihydroxy-5-(6-imino-7,8-dihydro-1~{H}-purin-8-ylium-9-yl)tetrahydrofuran-2-yl]methoxy-oxido-phosphoryl]oxy-hydroxy-phosphoryl] hydrogen phosphate
   46    48     1     0     0
SMALL
USER_CHARGES

@<TRIPOS>ATOM
      1 PG          6.9065   -2.3562   -0.6105 P.3       1 ATP         1.5595
      2 O1G         8.2227   -3.0393   -0.3127 O.co2     1 ATP        -0.8438
      3 O2G         5.7374   -3.1336   -1.1728 O.co2     1 ATP        -0.8438
      4 O3G         6.4110   -1.5764    0.7359 O.3       1 ATP        -0.7800
      5 PB          6.1907    0.1115   -2.0583 P.3       1 ATP         1.9223
      6 O1B         5.5545    0.9201   -0.9666 O.2       1 ATP        -0.8953
      7 O2B         7.0876    0.9575   -3.1040 O.3       1 ATP        -0.8165
      8 O3B         7.1873   -1.0586   -1.5579 O.3       1 ATP        -0.8247
      9 PA          3.9552   -0.2066   -3.9564 P.3       1 ATP         1.6157
     10 O1A         3.2311   -1.4130   -4.5133 O.co2     1 ATP        -0.8629
     11 O2A         4.4938    0.8658   -4.8783 O.co2     1 ATP        -0.8629
     12 O3A         5.1749   -0.7199   -2.9999 O.3       1 ATP        -0.8191
     13 O5'         3.0213    0.5153   -2.8245 O.3       1 ATP        -0.5644
     14 C5'         2.2816   -0.2918   -1.9206 C.3       1 ATP         0.2062
     15 C4'         2.7248    0.0226   -0.4980 C.3       1 ATP         0.0971
     16 O4'         2.4697    1.4219   -0.2462 O.3       1 ATP        -0.3662
     17 C3'         1.9404   -0.7419    0.5596 C.3       1 ATP         0.0734
     18 O3'         2.7418   -0.8086    1.7389 O.3       1 ATP        -0.5671
     19 C2'         0.7477    0.1630    0.7858 C.3       1 ATP         0.0745
     20 O2'         0.1373   -0.0577    2.0407 O.3       1 ATP        -0.5794
     21 C1'         1.3733    1.5427    0.6747 C.3       1 ATP         0.3824
     22 N9          0.4520    2.5240    0.1767 N.pl3     1 ATP        -0.4324
     23 C8          0.2216    2.8192   -1.0985 C.ar      1 ATP         0.2662
     24 N7         -0.6906    3.7763   -1.2384 N.pl3     1 ATP        -0.4772
     25 C5         -1.0575    4.1037    0.0366 C.ar      1 ATP        -0.1305
     26 C6         -2.0291    5.0943    0.5330 C.ar      1 ATP         0.7186
     27 N6         -2.7093    5.8371   -0.2800 N.2       1 ATP        -0.8115
     28 N1         -2.1051    5.1136    1.9204 N.pl3     1 ATP        -0.8400
     29 C2         -1.3354    4.2774    2.7129 C.ar      1 ATP         0.6671
     30 N3         -0.4707    3.3945    2.2944 N.2       1 ATP        -0.5806
     31 C4         -0.3734    3.3525    0.9220 C.ar      1 ATP         0.2748
     32 HOG3        5.5653   -1.0806    0.7035 H         1 ATP         0.4327
     33 HOB2        7.8601    1.4602   -2.7683 H         1 ATP         0.4701
     34 H5'1        1.2163   -0.0770   -2.0471 H         1 ATP         0.0401
     35 H5'2        2.4655   -1.3443   -2.1563 H         1 ATP         0.0401
     36 H4'         3.8044   -0.1397   -0.4040 H         1 ATP         0.1136
     37 H3'         1.6764   -1.7639    0.2728 H         1 ATP         0.0693
     38 HO3'        3.5554   -1.2733    1.4914 H         1 ATP         0.4124
     39 H2'        -0.0011    0.0027    0.0003 H         1 ATP         0.0854
     40 HO2'       -0.1563   -0.9855    2.0596 H         1 ATP         0.4367
     41 H1'         1.7826    1.9024    1.6451 H         1 ATP         0.1343
     42 H8          0.7125    2.3429   -1.9292 H         1 ATP         0.3302
     43 HN62       -3.3217    6.4517    0.2629 H         1 ATP         0.4160
     44 H2         -1.5188    4.4223    3.7890 H         1 ATP         0.0756
     45 H45        -2.7470    5.7627    2.3665 H         1 ATP         0.4587
     46 H46        -1.0305    4.1680   -2.1054 H         1 ATP         0.5254
@<TRIPOS>BOND
     1    1    2 2
     2    1    3 1
     3    1    4 1
     4    1    8 1
     5    4   32 1
     6    5    6 2
     7    5    7 1
     8    5    8 1
     9    5   12 1
    10    7   33 1
    11    9   10 2
    12    9   11 1
    13    9   12 1
    14    9   13 1
    15   13   14 1
    16   14   15 1
    17   14   34 1
    18   14   35 1
    19   15   16 1
    20   15   17 1
    21   15   36 1
    22   16   21 1
    23   17   18 1
    24   17   19 1
    25   17   37 1
    26   18   38 1
    27   19   20 1
    28   19   21 1
    29   19   39 1
    30   20   40 1
    31   21   22 1
    32   21   41 1
    33   22   23 ar
    34   22   31 ar
    35   23   24 ar
    36   23   42 1
    37   24   25 ar
    38   24   46 1
    39   25   26 ar
    40   25   31 ar
    41   26   27 2
    42   26   28 ar
    43   27   43 1
    44   28   29 ar
    45   28   45 1
    46   29   30 ar
    47   29   44 1
    48   30   31 ar
@<TRIPOS>SUBSTRUCTURE
     1 ATP         1 GROUP 0 A     ****
@<TRIPOS>MOLECULE
[[[3,4-dihydroxy-5-(6-imino-7,8-dihydro-1~{H}-purin-8-ylium-9-yl)tetrahydrofuran-2-yl]methoxy-oxido-phosphoryl]oxy-hydroxy-phosphoryl] hydrogen phosphate
   46    48     1     0     0
SMALL
USER_CHARGES

@<TRIPOS>ATOM
      1 PG          2.9770   -3.9443   -5.1121 P.3       1 ATP         1.5595
      2 O1G         2.0413   -3.1730   -4.2082 O.co2     1 ATP        -0.8438
      3 O2G         3.6385   -5.2196   -4.6392 O.co2     1 ATP        -0.8438
      4 O3G         2.2042   -4.2516   -6.5173 O.3       1 ATP        -0.7800
      5 PB          5.3153   -2.1589   -4.9055 P.3       1 ATP         1.9223
      6 O1B         6.3034   -3.0462   -4.2078 O.2       1 ATP        -0.8953
      7 O2B         5.9432   -1.1925   -6.0393 O.3       1 ATP        -0.8165
      8 O3B         4.1219   -2.9292   -5.6770 O.3       1 ATP        -0.8247
      9 PA          3.3342   -0.0516   -4.3262 P.3       1 ATP         1.6157
     10 O1A         2.1153   -0.7748   -4.8565 O.co2     1 ATP        -0.8629
     11 O2A         3.9830    1.0583   -5.1244 O.co2     1 ATP        -0.8629
     12 O3A         4.4805   -1.1538   -3.9557 O.3       1 ATP        -0.8191
     13 O5'         3.0213    0.5153   -2.8245 O.3       1 ATP        -0.5644
     14 C5'         2.2816   -0.2918   -1.9206 C.3       1 ATP         0.2062
     15 C4'         2.7248    0.0226   -0.4980 C.3       1 ATP         0.0971
     16 O4'         2.4697    1.4219   -0.2462 O.3       1 ATP        -0.3662
     17 C3'         1.9404   -0.7419    0.5596 C.3       1 ATP         0.0734
     18 O3'         2.7418   -0.8086    1.7389 O.3       1 ATP        -0.5671
     19 C2'         0.7477    0.1630    0.7858 C.3       1 ATP         0.0745
     20 O2'         0.1373   -0.0577    2.0407 O.3       1 ATP        -0.5794
     21 C1'         1.3733    1.5427    0.6747 C.3       1 ATP         0.3824
     22 N9          0.4520    2.5240    0.1767 N.pl3     1 ATP        -0.4324
     23 C8         -0.2004    2.4829   -0.9804 C.ar      1 ATP         0.2662
     24 N7         -0.9830    3.5431   -1.1568 N.pl3     1 ATP        -0.4772
     25 C5         -0.8095    4.3012   -0.0331 C.ar      1 ATP        -0.1305
     26 C6         -1.4065    5.5904    0.3585 C.ar      1 ATP         0.7186
     27 N6         -2.2501    6.2030   -0.4084 N.2       1 ATP        -0.8115
     28 N1         -0.9585    6.0272    1.5994 N.pl3     1 ATP        -0.8400
     29 C2         -0.0508    5.3009    2.3532 C.ar      1 ATP         0.6671
     30 N3          0.4890    4.1592    2.0257 N.2       1 ATP        -0.5806
     31 C4          0.0637    3.7006    0.7995 C.ar      1 ATP         0.2748
     32 HOG3        2.6828   -4.7490   -7.2141 H         1 ATP         0.4327
     33 HOB2        6.4055   -1.5965   -6.8043 H         1 ATP         0.4701
     34 H5'1        1.2163   -0.0770   -2.0471 H         1 ATP         0.0401
     35 H5'2        2.4655   -1.3443   -2.1563 H         1 ATP         0.0401
     36 H4'         3.8044   -0.1397   -0.4040 H         1 ATP         0.1136
     37 H3'         1.6764   -1.7639    0.2728 H         1 ATP         0.0693
     38 HO3'        3.5554   -1.2733    1.4914 H         1 ATP         0.4124
     39 H2'        -0.0011    0.0027    0.0003 H         1 ATP         0.0854
     40 HO2'       -0.6141    0.5574    2.1082 H         1 ATP         0.4367
     41 H1'         1.7826    1.9024    1.6451 H         1 ATP         0.1343
     42 H8         -0.1116    1.6863   -1.6984 H         1 ATP         0.3302
     43 HN62       -2.5420    7.0730    0.0447 H         1 ATP         0.4160
     44 H2          0.1969    5.7893    3.3086 H         1 ATP         0.0756
     45 H45        -1.3097    6.9080    1.9642 H         1 ATP         0.4587
     46 H46        -1.5735    3.7351   -1.9538 H         1 ATP         0.5254
@<TRIPOS>BOND
     1    1    2 2
     2    1    3 1
     3    1    4 1
     4    1    8 1
     5    4   32 1
     6    5    6 2
     7    5    7 1
     8    5    8 1
     9    5   12 1
    10    7   33 1
    11    9   10 2
    12    9   11 1
    13    9   12 1
    14    9   13 1
    15   13   14 1
    16   14   15 1
    17   14   34 1
    18   14   35 1
    19   15   16 1
    20   15   17 1
    21   15   36 1
    22   16   21 1
    23   17   18 1
    24   17   19 1
    25   17   37 1
    26   18   38 1
    27   19   20 1
    28   19   21 1
    29   19   39 1
    30   20   40 1
    31   21   22 1
    32   21   41 1
    33   22   23 ar
    34   22   31 ar
    35   23   24 ar
    36   23   42 1
    37   24   25 ar
    38   24   46 1
    39   25   26 ar
    40   25   31 ar
    41   26   27 2
    42   26   28 ar
    43   27   43 1
    44   28   29 ar
    45   28   45 1
    46   29   30 ar
    47   29   44 1
    48   30   31 ar
@<TRIPOS>SUBSTRUCTURE
     1 ATP         1 GROUP 0 A     ****
@<TRIPOS>MOLECULE
[[[3,4-dihydroxy-5-(6-imino-7,8-dihydro-1~{H}-purin-8-ylium-9-yl)tetrahydrofuran-2-yl]methoxy-oxido-phosphoryl]oxy-hydroxy-phosphoryl] hydrogen phosphate
   46    48     1     0     0
SMALL
USER_CHARGES

@<TRIPOS>ATOM
      1 PG          3.1134   -4.2471   -6.4433 P.3       1 ATP         1.5595
      2 O1G         3.7696   -4.2261   -5.0806 O.co2     1 ATP        -0.8438
      3 O2G         3.8717   -3.8122   -7.6775 O.co2     1 ATP        -0.8438
      4 O3G         2.5105   -5.7418   -6.7051 O.3       1 ATP        -0.7800
      5 PB          1.4238   -1.8510   -6.1246 P.3       1 ATP         1.9223
      6 O1B         2.0230   -0.9295   -7.1454 O.2       1 ATP        -0.8953
      7 O2B        -0.1849   -1.7685   -5.9874 O.3       1 ATP        -0.8165
      8 O3B         1.7075   -3.4240   -6.3652 O.3       1 ATP        -0.8247
      9 PA          1.5543   -2.4556   -3.2404 P.3       1 ATP         1.6157
     10 O1A         2.0068   -3.8946   -3.3602 O.co2     1 ATP        -0.8629
     11 O2A         0.1179   -2.1223   -2.9006 O.co2     1 ATP        -0.8629
     12 O3A         1.9540   -1.6623   -4.6104 O.3       1 ATP        -0.8191
     13 O5'         2.5245   -1.6648   -2.1878 O.3       1 ATP        -0.5644
     14 C5'         2.2816   -0.2918   -1.9206 C.3       1 ATP         0.2062
     15 C4'         2.7248    0.0226   -0.4980 C.3       1 ATP         0.0971
     16 O4'         2.4697    1.4219   -0.2462 O.3       1 ATP        -0.3662
     17 C3'         1.9404   -0.7419    0.5596 C.3       1 ATP         0.0734
     18 O3'         2.7418   -0.8086    1.7389 O.3       1 ATP        -0.5671
     19 C2'         0.7477    0.1630    0.7858 C.3       1 ATP         0.0745
     20 O2'         0.1373   -0.0577    2.0407 O.3       1 ATP        -0.5794
     21 C1'         1.3733    1.5427    0.6747 C.3       1 ATP         0.3824
     22 N9          0.4520    2.5240    0.1767 N.pl3     1 ATP        -0.4324
     23 C8          0.2216    2.8192   -1.0985 C.ar      1 ATP         0.2662
     24 N7         -0.6906    3.7763   -1.2384 N.pl3     1 ATP        -0.4772
     25 C5         -1.0575    4.1037    0.0366 C.ar      1 ATP        -0.1305
     26 C6         -2.0291    5.0943    0.5330 C.ar      1 ATP         0.7186
     27 N6         -2.7093    5.8371   -0.2800 N.2       1 ATP        -0.8115
     28 N1         -2.1051    5.1136    1.9204 N.pl3     1 ATP        -0.8400
     29 C2         -1.3354    4.2774    2.7129 C.ar      1 ATP         0.6671
     30 N3         -0.4707    3.3945    2.2944 N.2       1 ATP        -0.5806
     31 C4         -0.3734    3.3525    0.9220 C.ar      1 ATP         0.2748
     32 HOG3        2.0501   -5.9173   -7.5533 H         1 ATP         0.4327
     33 HOB2       -0.7390   -1.9709   -6.7712 H         1 ATP         0.4701
     34 H5'1        2.8432    0.3119   -2.6398 H         1 ATP         0.0401
     35 H5'2        1.2128   -0.0927   -2.0428 H         1 ATP         0.0401
     36 H4'         3.8044   -0.1397   -0.4040 H         1 ATP         0.1136
     37 H3'         1.6764   -1.7639    0.2728 H         1 ATP         0.0693
     38 HO3'        3.5554   -1.2733    1.4914 H         1 ATP         0.4124
     39 H2'        -0.0011    0.0027    0.0003 H         1 ATP         0.0854
     40 HO2'       -0.1563   -0.9855    2.0596 H         1 ATP         0.4367
     41 H1'         1.7826    1.9024    1.6451 H         1 ATP         0.1343
     42 H8          0.7125    2.3429   -1.9292 H         1 ATP         0.3302
     43 HN62       -3.3217    6.4517    0.2629 H         1 ATP         0.4160
     44 H2         -1.5188    4.4223    3.7890 H         1 ATP         0.0756
     45 H45        -2.7470    5.7627    2.3665 H         1 ATP         0.4587
     46 H46        -1.0305    4.1680   -2.1054 H         1 ATP         0.5254
@<TRIPOS>BOND
     1    1    2 2
     2    1    3 1
     3    1    4 1
     4    1    8 1
     5    4   32 1
     6    5    6 2
     7    5    7 1
     8    5    8 1
     9    5   12 1
    10    7   33 1
    11    9   10 2
    12    9   11 1
    13    9   12 1
    14    9   13 1
    15   13   14 1
    16   14   15 1
    17   14   34 1
    18   14   35 1
    19   15   16 1
    20   15   17 1
    21   15   36 1
    22   16   21 1
    23   17   18 1
    24   17   19 1
    25   17   37 1
    26   18   38 1
    27   19   20 1
    28   19   21 1
    29   19   39 1
    30   20   40 1
    31   21   22 1
    32   21   41 1
    33   22   23 ar
    34   22   31 ar
    35   23   24 ar
    36   23   42 1
    37   24   25 ar
    38   24   46 1
    39   25   26 ar
    40   25   31 ar
    41   26   27 2
    42   26   28 ar
    43   27   43 1
    44   28   29 ar
    45   28   45 1
    46   29   30 ar
    47   29   44 1
    48   30   31 ar
@<TRIPOS>SUBSTRUCTURE
     1 ATP         1 GROUP 0 A     ****
@<TRIPOS>MOLECULE
[[[3,4-dihydroxy-5-(6-imino-7,8-dihydro-1~{H}-purin-8-ylium-9-yl)tetrahydrofuran-2-yl]methoxy-oxido-phosphoryl]oxy-hydroxy-phosphoryl] hydrogen phosphate
   46    48     1     0     0
SMALL
USER_CHARGES

@<TRIPOS>ATOM
      1 PG         -3.5001   -1.4949   -3.2615 P.3       1 ATP         1.5595
      2 O1G        -3.9505   -2.9348   -3.1543 O.co2     1 ATP        -0.8438
      3 O2G        -4.1903   -0.5329   -4.2025 O.co2     1 ATP        -0.8438
      4 O3G        -3.4932   -0.8413   -1.7652 O.3       1 ATP        -0.7800
      5 PB         -0.6717   -2.1645   -2.7617 P.3       1 ATP         1.9223
      6 O1B        -0.5217   -1.7588   -1.3254 O.2       1 ATP        -0.8953
      7 O2B        -0.9127   -3.7443   -3.0061 O.3       1 ATP        -0.8165
      8 O3B        -1.8955   -1.4637   -3.5518 O.3       1 ATP        -0.8247
      9 PA          2.1371   -2.2715   -3.6563 P.3       1 ATP         1.6157
     10 O1A         2.9134   -1.5359   -4.7268 O.co2     1 ATP        -0.8629
     11 O2A         2.1801   -3.7817   -3.5697 O.co2     1 ATP        -0.8629
     12 O3A         0.5735   -1.8066   -3.7266 O.3       1 ATP        -0.8191
     13 O5'         2.5245   -1.6648   -2.1878 O.3       1 ATP        -0.5644
     14 C5'         2.2816   -0.2918   -1.9206 C.3       1 ATP         0.2062
     15 C4'         2.7248    0.0226   -0.4980 C.3       1 ATP         0.0971
     16 O4'         2.4697    1.4219   -0.2462 O.3       1 ATP        -0.3662
     17 C3'         1.9404   -0.7419    0.5596 C.3       1 ATP         0.0734
     18 O3'         2.7418   -0.8086    1.7389 O.3       1 ATP        -0.5671
     19 C2'         0.7477    0.1630    0.7858 C.3       1 ATP         0.0745
     20 O2'         0.1373   -0.0577    2.0407 O.3       1 ATP        -0.5794
     21 C1'         1.3733    1.5427    0.6747 C.3       1 ATP         0.3824
     22 N9          0.4520    2.5240    0.1767 N.pl3     1 ATP        -0.4324
     23 C8          0.5691    3.2215   -0.9485 C.ar      1 ATP         0.2662
     24 N7         -0.4499    4.0551   -1.1342 N.pl3     1 ATP        -0.4772
     25 C5         -1.2618    3.8674   -0.0512 C.ar      1 ATP        -0.1305
     26 C6         -2.5420    4.5007    0.3120 C.ar      1 ATP         0.7186
     27 N6         -3.0874    5.3993   -0.4432 N.2       1 ATP        -0.8115
     28 N1         -3.0494    4.0205    1.5133 N.pl3     1 ATP        -0.8400
     29 C2         -2.3933    3.0527    2.2567 C.ar      1 ATP         0.6671
     30 N3         -1.2611    2.4796    1.9536 N.2       1 ATP        -0.5806
     31 C4         -0.7334    2.9358    0.7669 C.ar      1 ATP         0.2748
     32 HOG3       -3.2216    0.0961   -1.6666 H         1 ATP         0.4327
     33 HOB2       -0.2314   -4.3809   -2.7014 H         1 ATP         0.4701
     34 H5'1        2.8432    0.3119   -2.6398 H         1 ATP         0.0401
     35 H5'2        1.2128   -0.0927   -2.0428 H         1 ATP         0.0401
     36 H4'         3.8044   -0.1397   -0.4040 H         1 ATP         0.1136
     37 H3'         1.6764   -1.7639    0.2728 H         1 ATP         0.0693
     38 HO3'        2.2232   -1.2979    2.3953 H         1 ATP         0.4124
     39 H2'        -0.0011    0.0027    0.0003 H         1 ATP         0.0854
     40 HO2'       -0.1563   -0.9855    2.0596 H         1 ATP         0.4367
     41 H1'         1.7826    1.9024    1.6451 H         1 ATP         0.1343
     42 H8          1.3912    3.1285   -1.6365 H         1 ATP         0.3302
     43 HN62       -3.9637    5.7084   -0.0142 H         1 ATP         0.4160
     44 H2         -2.9317    2.7866    3.1796 H         1 ATP         0.0756
     45 H45        -3.9307    4.3923    1.8559 H         1 ATP         0.4587
     46 H46        -0.5835    4.6857   -1.9122 H         1 ATP         0.5254
@<TRIPOS>BOND
     1    1    2 2
     2    1    3 1
     3    1    4 1
     4    1    8 1
     5    4   32 1
     6    5    6 2
     7    5    7 1
     8    5    8 1
     9    5   12 1
    10    7   33 1
    11    9   10 2
    12    9   11 1
    13    9   12 1
    14    9   13 1
    15   13   14 1
    16   14   15 1
    17   14   34 1
    18   14   35 1
    19   15   16 1
    20   15   17 1
    21   15   36 1
    22   16   21 1
    23   17   18 1
    24   17   19 1
    25   17   37 1
    26   18   38 1
    27   19   20 1
    28   19   21 1
    29   19   39 1
    30   20   40 1
    31   21   22 1
    32   21   41 1
    33   22   23 ar
    34   22   31 ar
    35   23   24 ar
    36   23   42 1
    37   24   25 ar
    38   24   46 1
    39   25   26 ar
    40   25   31 ar
    41   26   27 2
    42   26   28 ar
    43   27   43 1
    44   28   29 ar
    45   28   45 1
    46   29   30 ar
    47   29   44 1
    48   30   31 ar
@<TRIPOS>SUBSTRUCTURE
     1 ATP         1 GROUP 0 A     ****
@<TRIPOS>MOLECULE
[[[3,4-dihydroxy-5-(6-imino-7,8-dihydro-1~{H}-purin-8-ylium-9-yl)tetrahydrofuran-2-yl]methoxy-oxido-phosphoryl]oxy-hydroxy-phosphoryl] hydrogen phosphate
   46    48     1     0     0
SMALL
USER_CHARGES

@<TRIPOS>ATOM
      1 PG         -0.9847    0.7421   -5.3695 P.3       1 ATP         1.5595
      2 O1G        -0.4637    1.1314   -4.0040 O.co2     1 ATP        -0.8438
      3 O2G        -2.1101   -0.2577   -5.5157 O.co2     1 ATP        -0.8438
      4 O3G        -1.3916    2.1023   -6.1761 O.3       1 ATP        -0.7800
      5 PB          1.2428   -1.0148   -6.1754 P.3       1 ATP         1.9223
      6 O1B         0.5561   -2.3464   -6.2503 O.2       1 ATP        -0.8953
      7 O2B         2.3638   -0.7570   -7.3114 O.3       1 ATP        -0.8165
      8 O3B         0.2700    0.2702   -6.2986 O.3       1 ATP        -0.8247
      9 PA          2.8619    0.6169   -4.3269 P.3       1 ATP         1.6157
     10 O1A         1.9202    1.7974   -4.2284 O.co2     1 ATP        -0.8629
     11 O2A         4.1141    0.6950   -5.1728 O.co2     1 ATP        -0.8629
     12 O3A         2.0115   -0.6976   -4.7905 O.3       1 ATP        -0.8191
     13 O5'         3.2903    0.1346   -2.8241 O.3       1 ATP        -0.5644
     14 C5'         2.2816   -0.2918   -1.9206 C.3       1 ATP         0.2062
     15 C4'         2.7248    0.0226   -0.4980 C.3       1 ATP         0.0971
     16 O4'         2.4697    1.4219   -0.2462 O.3       1 ATP        -0.3662
     17 C3'         1.9404   -0.7419    0.5596 C.3       1 ATP         0.0734
     18 O3'         2.7418   -0.8086    1.7389 O.3       1 ATP        -0.5671
     19 C2'         0.7477    0.1630    0.7858 C.3       1 ATP         0.0745
     20 O2'         0.1373   -0.0577    2.0407 O.3       1 ATP        -0.5794
     21 C1'         1.3733    1.5427    0.6747 C.3       1 ATP         0.3824
     22 N9          0.4520    2.5240    0.1767 N.pl3     1 ATP        -0.4324
     23 C8          0.5691    3.2215   -0.9485 C.ar      1 ATP         0.2662
     24 N7         -0.4499    4.0551   -1.1342 N.pl3     1 ATP        -0.4772
     25 C5         -1.2618    3.8674   -0.0512 C.ar      1 ATP        -0.1305
     26 C6         -2.5420    4.5007    0.3120 C.ar      1 ATP         0.7186
     27 N6         -3.0874    5.3993   -0.4432 N.2       1 ATP        -0.8115
     28 N1         -3.0494    4.0205    1.5133 N.pl3     1 ATP        -0.8400
     29 C2         -2.3933    3.0527    2.2567 C.ar      1 ATP         0.6671
     30 N3         -1.2611    2.4796    1.9536 N.2       1 ATP        -0.5806
     31 C4         -0.7334    2.9358    0.7669 C.ar      1 ATP         0.2748
     32 HOG3       -1.7492    2.0163   -7.0854 H         1 ATP         0.4327
     33 HOB2        3.1338   -1.3625   -7.3643 H         1 ATP         0.4701
     34 H5'1        1.3514    0.2330   -2.1577 H         1 ATP         0.0401
     35 H5'2        2.1280   -1.3678   -2.0460 H         1 ATP         0.0401
     36 H4'         3.8044   -0.1397   -0.4040 H         1 ATP         0.1136
     37 H3'         1.6764   -1.7639    0.2728 H         1 ATP         0.0693
     38 HO3'        3.5554   -1.2733    1.4914 H         1 ATP         0.4124
     39 H2'        -0.0011    0.0027    0.0003 H         1 ATP         0.0854
     40 HO2'       -0.1563   -0.9855    2.0596 H         1 ATP         0.4367
     41 H1'         1.7826    1.9024    1.6451 H         1 ATP         0.1343
     42 H8          1.3912    3.1285   -1.6365 H         1 ATP         0.3302
     43 HN62       -3.9637    5.7084   -0.0142 H         1 ATP         0.4160
     44 H2         -2.9317    2.7866    3.1796 H         1 ATP         0.0756
     45 H45        -3.9307    4.3923    1.8559 H         1 ATP         0.4587
     46 H46        -0.5835    4.6857   -1.9122 H         1 ATP         0.5254
@<TRIPOS>BOND
     1    1    2 2
     2    1    3 1
     3    1    4 1
     4    1    8 1
     5    4   32 1
     6    5    6 2
     7    5    7 1
     8    5    8 1
     9    5   12 1
    10    7   33 1
    11    9   10 2
    12    9   11 1
    13    9   12 1
    14    9   13 1
    15   13   14 1
    16   14   15 1
    17   14   34 1
    18   14   35 1
    19   15   16 1
    20   15   17 1
    21   15   36 1
    22   16   21 1
    23   17   18 1
    24   17   19 1
    25   17   37 1
    26   18   38 1
    27   19   20 1
    28   19   21 1
    29   19   39 1
    30   20   40 1
    31   21   22 1
    32   21   41 1
    33   22   23 ar
    34   22   31 ar
    35   23   24 ar
    36   23   42 1
    37   24   25 ar
    38   24   46 1
    39   25   26 ar
    40   25   31 ar
    41   26   27 2
    42   26   28 ar
    43   27   43 1
    44   28   29 ar
    45   28   45 1
    46   29   30 ar
    47   29   44 1
    48   30   31 ar
@<TRIPOS>SUBSTRUCTURE
     1 ATP         1 GROUP 0 A     ****
@<TRIPOS>MOLECULE
[[[3,4-dihydroxy-5-(6-imino-7,8-dihydro-1~{H}-purin-8-ylium-9-yl)tetrahydrofuran-2-yl]methoxy-oxido-phosphoryl]oxy-hydroxy-phosphoryl] hydrogen phosphate
   46    48     1     0     0
SMALL
USER_CHARGES

@<TRIPOS>ATOM
      1 PG         -0.1528   -5.5181   -3.4976 P.3       1 ATP         1.5595
      2 O1G        -1.5029   -5.7369   -2.8518 O.co2     1 ATP        -0.8438
      3 O2G         1.0696   -5.2167   -2.6596 O.co2     1 ATP        -0.8438
      4 O3G         0.1776   -6.7993   -4.4545 O.3       1 ATP        -0.7800
      5 PB         -0.6283   -2.7993   -4.5367 P.3       1 ATP         1.9223
      6 O1B        -0.6828   -2.0585   -5.8400 O.2       1 ATP        -0.8953
      7 O2B        -1.9898   -2.7555   -3.6662 O.3       1 ATP        -0.8165
      8 O3B        -0.2993   -4.3775   -4.6542 O.3       1 ATP        -0.8247
      9 PA          2.1371   -2.2715   -3.6563 P.3       1 ATP         1.6157
     10 O1A         2.4976   -1.2664   -4.7285 O.co2     1 ATP        -0.8629
     11 O2A         2.6455   -3.6950   -3.7283 O.co2     1 ATP        -0.8629
     12 O3A         0.5123   -2.3150   -3.5004 O.3       1 ATP        -0.8191
     13 O5'         2.5245   -1.6648   -2.1878 O.3       1 ATP        -0.5644
     14 C5'         2.2816   -0.2918   -1.9206 C.3       1 ATP         0.2062
     15 C4'         2.7248    0.0226   -0.4980 C.3       1 ATP         0.0971
     16 O4'         2.4697    1.4219   -0.2462 O.3       1 ATP        -0.3662
     17 C3'         1.9404   -0.7419    0.5596 C.3       1 ATP         0.0734
     18 O3'         2.7418   -0.8086    1.7389 O.3       1 ATP        -0.5671
     19 C2'         0.7477    0.1630    0.7858 C.3       1 ATP         0.0745
     20 O2'         0.1373   -0.0577    2.0407 O.3       1 ATP        -0.5794
     21 C1'         1.3733    1.5427    0.6747 C.3       1 ATP         0.3824
     22 N9          0.4520    2.5240    0.1767 N.pl3     1 ATP        -0.4324
     23 C8          0.2216    2.8192   -1.0985 C.ar      1 ATP         0.2662
     24 N7         -0.6906    3.7763   -1.2384 N.pl3     1 ATP        -0.4772
     25 C5         -1.0575    4.1037    0.0366 C.ar      1 ATP        -0.1305
     26 C6         -2.0291    5.0943    0.5330 C.ar      1 ATP         0.7186
     27 N6         -2.7093    5.8371   -0.2800 N.2       1 ATP        -0.8115
     28 N1         -2.1051    5.1136    1.9204 N.pl3     1 ATP        -0.8400
     29 C2         -1.3354    4.2774    2.7129 C.ar      1 ATP         0.6671
     30 N3         -0.4707    3.3945    2.2944 N.2       1 ATP        -0.5806
     31 C4         -0.3734    3.3525    0.9220 C.ar      1 ATP         0.2748
     32 HOG3        1.0258   -6.8073   -4.9472 H         1 ATP         0.4327
     33 HOB2       -2.3383   -1.8865   -3.3736 H         1 ATP         0.4701
     34 H5'1        2.8432    0.3119   -2.6398 H         1 ATP         0.0401
     35 H5'2        1.2128   -0.0927   -2.0428 H         1 ATP         0.0401
     36 H4'         3.8044   -0.1397   -0.4040 H         1 ATP         0.1136
     37 H3'         1.6764   -1.7639    0.2728 H         1 ATP         0.0693
     38 HO3'        3.5554   -1.2733    1.4914 H         1 ATP         0.4124
     39 H2'        -0.0011    0.0027    0.0003 H         1 ATP         0.0854
     40 HO2'       -0.1563   -0.9855    2.0596 H         1 ATP         0.4367
     41 H1'         1.7826    1.9024    1.6451 H         1 ATP         0.1343
     42 H8          0.7125    2.3429   -1.9292 H         1 ATP         0.3302
     43 HN62       -3.3217    6.4517    0.2629 H         1 ATP         0.4160
     44 H2         -1.5188    4.4223    3.7890 H         1 ATP         0.0756
     45 H45        -2.7470    5.7627    2.3665 H         1 ATP         0.4587
     46 H46        -1.0305    4.1680   -2.1054 H         1 ATP         0.5254
@<TRIPOS>BOND
     1    1    2 2
     2    1    3 1
     3    1    4 1
     4    1    8 1
     5    4   32 1
     6    5    6 2
     7    5    7 1
     8    5    8 1
     9    5   12 1
    10    7   33 1
    11    9   10 2
    12    9   11 1
    13    9   12 1
    14    9   13 1
    15   13   14 1
    16   14   15 1
    17   14   34 1
    18   14   35 1
    19   15   16 1
    20   15   17 1
    21   15   36 1
    22   16   21 1
    23   17   18 1
    24   17   19 1
    25   17   37 1
    26   18   38 1
    27   19   20 1
    28   19   21 1
    29   19   39 1
    30   20   40 1
    31   21   22 1
    32   21   41 1
    33   22   23 ar
    34   22   31 ar
    35   23   24 ar
    36   23   42 1
    37   24   25 ar
    38   24   46 1
    39   25   26 ar
    40   25   31 ar
    41   26   27 2
    42   26   28 ar
    43   27   43 1
    44   28   29 ar
    45   28   45 1
    46   29   30 ar
    47   29   44 1
    48   30   31 ar
@<TRIPOS>SUBSTRUCTURE
     1 ATP         1 GROUP 0 A     ****
@<TRIPOS>MOLECULE
[[[3,4-dihydroxy-5-(6-imino-7,8-dihydro-1~{H}-purin-8-ylium-9-yl)tetrahydrofuran-2-yl]methoxy-oxido-phosphoryl]oxy-hydroxy-phosphoryl] hydrogen phosphate
   46    48     1     0     0
SMALL
USER_CHARGES

@<TRIPOS>ATOM
      1 PG          3.3755    0.5708   -7.8240 P.3       1 ATP         1.5595
      2 O1G         3.2708    1.6063   -6.7265 O.co2     1 ATP        -0.8438
      3 O2G         2.2543    0.3791   -8.8208 O.co2     1 ATP        -0.8438
      4 O3G         4.7626    0.8261   -8.6467 O.3       1 ATP        -0.7800
      5 PB          2.8856   -1.8264   -6.1775 P.3       1 ATP         1.9223
      6 O1B         1.5806   -2.3083   -6.7387 O.2       1 ATP        -0.8953
      7 O2B         3.9277   -2.9925   -5.7677 O.3       1 ATP        -0.8165
      8 O3B         3.7460   -0.8705   -7.1566 O.3       1 ATP        -0.8247
      9 PA          3.9552   -0.2066   -3.9564 P.3       1 ATP         1.6157
     10 O1A         4.6399    0.8510   -4.7947 O.co2     1 ATP        -0.8629
     11 O2A         4.7577   -1.2974   -3.2811 O.co2     1 ATP        -0.8629
     12 O3A         2.7844   -0.9106   -4.8506 O.3       1 ATP        -0.8191
     13 O5'         3.0213    0.5153   -2.8245 O.3       1 ATP        -0.5644
     14 C5'         2.2816   -0.2918   -1.9206 C.3       1 ATP         0.2062
     15 C4'         2.7248    0.0226   -0.4980 C.3       1 ATP         0.0971
     16 O4'         2.4697    1.4219   -0.2462 O.3       1 ATP        -0.3662
     17 C3'         1.9404   -0.7419    0.5596 C.3       1 ATP         0.0734
     18 O3'         2.7418   -0.8086    1.7389 O.3       1 ATP        -0.5671
     19 C2'         0.7477    0.1630    0.7858 C.3       1 ATP         0.0745
     20 O2'         0.1373   -0.0577    2.0407 O.3       1 ATP        -0.5794
     21 C1'         1.3733    1.5427    0.6747 C.3       1 ATP         0.3824
     22 N9          0.4520    2.5240    0.1767 N.pl3     1 ATP        -0.4324
     23 C8          0.2216    2.8192   -1.0985 C.ar      1 ATP         0.2662
     24 N7         -0.6906    3.7763   -1.2384 N.pl3     1 ATP        -0.4772
     25 C5         -1.0575    4.1037    0.0366 C.ar      1 ATP        -0.1305
     26 C6         -2.0291    5.0943    0.5330 C.ar      1 ATP         0.7186
     27 N6         -2.7093    5.8371   -0.2800 N.2       1 ATP        -0.8115
     28 N1         -2.1051    5.1136    1.9204 N.pl3     1 ATP        -0.8400
     29 C2         -1.3354    4.2774    2.7129 C.ar      1 ATP         0.6671
     30 N3         -0.4707    3.3945    2.2944 N.2       1 ATP        -0.5806
     31 C4         -0.3734    3.3525    0.9220 C.ar      1 ATP         0.2748
     32 HOG3        4.9767    0.2310   -9.3966 H         1 ATP         0.4327
     33 HOB2        3.6624   -3.6489   -5.0888 H         1 ATP         0.4701
     34 H5'1        1.2163   -0.0770   -2.0471 H         1 ATP         0.0401
     35 H5'2        2.4655   -1.3443   -2.1563 H         1 ATP         0.0401
     36 H4'         3.8044   -0.1397   -0.4040 H         1 ATP         0.1136
     37 H3'         1.6764   -1.7639    0.2728 H         1 ATP         0.0693
     38 HO3'        3.5554   -1.2733    1.4914 H         1 ATP         0.4124
     39 H2'        -0.0011    0.0027    0.0003 H         1 ATP         0.0854
     40 HO2'        0.8082    0.1199    2.7232 H         1 ATP         0.4367
     41 H1'         1.7826    1.9024    1.6451 H         1 ATP         0.1343
     42 H8          0.7125    2.3429   -1.9292 H         1 ATP         0.3302
     43 HN62       -3.3217    6.4517    0.2629 H         1 ATP         0.4160
     44 H2         -1.5188    4.4223    3.7890 H         1 ATP         0.0756
     45 H45        -2.7470    5.7627    2.3665 H         1 ATP         0.4587
     46 H46        -1.0305    4.1680   -2.1054 H         1 ATP         0.5254
@<TRIPOS>BOND
     1    1    2 2
     2    1    3 1
     3    1    4 1
     4    1    8 1
     5    4   32 1
     6    5    6 2
     7    5    7 1
     8    5    8 1
     9    5   12 1
    10    7   33 1
    11    9   10 2
    12    9   11 1
    13    9   12 1
    14    9   13 1
    15   13   14 1
    16   14   15 1
    17   14   34 1
    18   14   35 1
    19   15   16 1
    20   15   17 1
    21   15   36 1
    22   16   21 1
    23   17   18 1
    24   17   19 1
    25   17   37 1
    26   18   38 1
    27   19   20 1
    28   19   21 1
    29   19   39 1
    30   20   40 1
    31   21   22 1
    32   21   41 1
    33   22   23 ar
    34   22   31 ar
    35   23   24 ar
    36   23   42 1
    37   24   25 ar
    38   24   46 1
    39   25   26 ar
    40   25   31 ar
    41   26   27 2
    42   26   28 ar
    43   27   43 1
    44   28   29 ar
    45   28   45 1
    46   29   30 ar
    47   29   44 1
    48   30   31 ar
@<TRIPOS>SUBSTRUCTURE
     1 ATP         1 GROUP 0 A     ****
@<TRIPOS>MOLECULE
[[[3,4-dihydroxy-5-(6-imino-7,8-dihydro-1~{H}-purin-8-ylium-9-yl)tetrahydrofuran-2-yl]methoxy-oxido-phosphoryl]oxy-hydroxy-phosphoryl] hydrogen phosphate
   46    48     1     0     0
SMALL
USER_CHARGES

@<TRIPOS>ATOM
      1 PG         -1.5890   -0.3317   -4.4313 P.3       1 ATP         1.5595
      2 O1G        -1.6624    1.0217   -5.1025 O.co2     1 ATP        -0.8438
      3 O2G        -1.0584   -0.4723   -3.0220 O.co2     1 ATP        -0.8438
      4 O3G        -3.0655   -1.0254   -4.5009 O.3       1 ATP        -0.7800
      5 PB          0.7629   -1.3788   -5.8701 P.3       1 ATP         1.9223
      6 O1B         1.1439   -2.5014   -6.7894 O.2       1 ATP        -0.8953
      7 O2B         1.0005    0.1053   -6.4655 O.3       1 ATP        -0.8165
      8 O3B        -0.7858   -1.3624   -5.4074 O.3       1 ATP        -0.8247
      9 PA          1.5543   -2.4556   -3.2404 P.3       1 ATP         1.6157
     10 O1A         2.2585   -3.6986   -3.7394 O.co2     1 ATP        -0.8629
     11 O2A         0.1705   -2.5413   -2.6342 O.co2     1 ATP        -0.8629
     12 O3A         1.5194   -1.3517   -4.4431 O.3       1 ATP        -0.8191
     13 O5'         2.5245   -1.6648   -2.1878 O.3       1 ATP        -0.5644
     14 C5'         2.2816   -0.2918   -1.9206 C.3       1 ATP         0.2062
     15 C4'         2.7248    0.0226   -0.4980 C.3       1 ATP         0.0971
     16 O4'         2.4697    1.4219   -0.2462 O.3       1 ATP        -0.3662
     17 C3'         1.9404   -0.7419    0.5596 C.3       1 ATP         0.0734
     18 O3'         2.7418   -0.8086    1.7389 O.3       1 ATP        -0.5671
     19 C2'         0.7477    0.1630    0.7858 C.3       1 ATP         0.0745
     20 O2'         0.1373   -0.0577    2.0407 O.3       1 ATP        -0.5794
     21 C1'         1.3733    1.5427    0.6747 C.3       1 ATP         0.3824
     22 N9          0.4520    2.5240    0.1767 N.pl3     1 ATP        -0.4324
     23 C8          0.2216    2.8192   -1.0985 C.ar      1 ATP         0.2662
     24 N7         -0.6906    3.7763   -1.2384 N.pl3     1 ATP        -0.4772
     25 C5         -1.0575    4.1037    0.0366 C.ar      1 ATP        -0.1305
     26 C6         -2.0291    5.0943    0.5330 C.ar      1 ATP         0.7186
     27 N6         -2.7093    5.8371   -0.2800 N.2       1 ATP        -0.8115
     28 N1         -2.1051    5.1136    1.9204 N.pl3     1 ATP        -0.8400
     29 C2         -1.3354    4.2774    2.7129 C.ar      1 ATP         0.6671
     30 N3         -0.4707    3.3945    2.2944 N.2       1 ATP        -0.5806
     31 C4         -0.3734    3.3525    0.9220 C.ar      1 ATP         0.2748
     32 HOG3       -3.1823   -1.9152   -4.1048 H         1 ATP         0.4327
     33 HOB2        1.9083    0.3735   -6.7230 H         1 ATP         0.4701
     34 H5'1        2.8432    0.3119   -2.6398 H         1 ATP         0.0401
     35 H5'2        1.2128   -0.0927   -2.0428 H         1 ATP         0.0401
     36 H4'         3.8044   -0.1397   -0.4040 H         1 ATP         0.1136
     37 H3'         1.6764   -1.7639    0.2728 H         1 ATP         0.0693
     38 HO3'        2.2232   -1.2979    2.3953 H         1 ATP         0.4124
     39 H2'        -0.0011    0.0027    0.0003 H         1 ATP         0.0854
     40 HO2'       -0.6141    0.5574    2.1082 H         1 ATP         0.4367
     41 H1'         1.7826    1.9024    1.6451 H         1 ATP         0.1343
     42 H8          0.7125    2.3429   -1.9292 H         1 ATP         0.3302
     43 HN62       -3.3217    6.4517    0.2629 H         1 ATP         0.4160
     44 H2         -1.5188    4.4223    3.7890 H         1 ATP         0.0756
     45 H45        -2.7470    5.7627    2.3665 H         1 ATP         0.4587
     46 H46        -1.0305    4.1680   -2.1054 H         1 ATP         0.5254
@<TRIPOS>BOND
     1    1    2 2
     2    1    3 1
     3    1    4 1
     4    1    8 1
     5    4   32 1
     6    5    6 2
     7    5    7 1
     8    5    8 1
     9    5   12 1
    10    7   33 1
    11    9   10 2
    12    9   11 1
    13    9   12 1
    14    9   13 1
    15   13   14 1
    16   14   15 1
    17   14   34 1
    18   14   35 1
    19   15   16 1
    20   15   17 1
    21   15   36 1
    22   16   21 1
    23   17   18 1
    24   17   19 1
    25   17   37 1
    26   18   38 1
    27   19   20 1
    28   19   21 1
    29   19   39 1
    30   20   40 1
    31   21   22 1
    32   21   41 1
    33   22   23 ar
    34   22   31 ar
    35   23   24 ar
    36   23   42 1
    37   24   25 ar
    38   24   46 1
    39   25   26 ar
    40   25   31 ar
    41   26   27 2
    42   26   28 ar
    43   27   43 1
    44   28   29 ar
    45   28   45 1
    46   29   30 ar
    47   29   44 1
    48   30   31 ar
@<TRIPOS>SUBSTRUCTURE
     1 ATP         1 GROUP 0 A     ****
@<TRIPOS>MOLECULE
[[[3,4-dihydroxy-5-(6-imino-7,8-dihydro-1~{H}-purin-8-ylium-9-yl)tetrahydrofuran-2-yl]methoxy-oxido-phosphoryl]oxy-hydroxy-phosphoryl] hydrogen phosphate
   46    48     1     0     0
SMALL
USER_CHARGES

@<TRIPOS>ATOM
      1 PG          1.2497   -9.6730    2.5350 P.3       1 ATP         1.5595
      2 O1G         1.0314  -10.7360    1.4814 O.co2     1 ATP        -0.8438
      3 O2G         0.2791   -9.5057    3.6827 O.co2     1 ATP        -0.8438
      4 O3G         2.7522   -9.8524    3.1486 O.3       1 ATP        -0.7800
      5 PB          1.8666   -6.7920    2.4036 P.3       1 ATP         1.9223
      6 O1B         3.1999   -6.7442    3.0896 O.2       1 ATP        -0.8953
      7 O2B         1.7060   -5.7877    1.1470 O.3       1 ATP        -0.8165
      8 O3B         1.4547   -8.2328    1.7975 O.3       1 ATP        -0.8247
      9 PA         -1.0040   -6.4120    2.9662 P.3       1 ATP         1.6157
     10 O1A        -1.7671   -5.9142    4.1744 O.co2     1 ATP        -0.8629
     11 O2A        -1.3789   -7.7172    2.2985 O.co2     1 ATP        -0.8629
     12 O3A         0.5865   -6.4621    3.3320 O.3       1 ATP        -0.8191
     13 O5'        -0.9724   -5.2440    1.8220 O.3       1 ATP        -0.5644
     14 C5'        -0.7840   -3.8935    2.2172 C.3       1 ATP         0.2062
     15 C4'        -0.0724   -3.1466    1.1027 C.3       1 ATP         0.0971
     16 O4'        -0.8674   -3.1929   -0.0945 O.3       1 ATP        -0.3662
     17 C3'         0.1338   -1.6715    1.4027 C.3       1 ATP         0.0734
     18 O3'         1.2893   -1.4445    2.1808 O.3       1 ATP        -0.5671
     19 C2'         0.2158   -1.0724    0.0128 C.3       1 ATP         0.0745
     20 O2'         1.5141   -1.2448   -0.5513 O.3       1 ATP        -0.5794
     21 C1'        -0.7897   -1.9176   -0.7583 C.3       1 ATP         0.3824
     22 N9         -2.1040   -1.3333   -0.7704 N.pl3     1 ATP        -0.4324
     23 C8         -3.0590   -1.5123    0.1363 C.ar      1 ATP         0.2662
     24 N7         -4.1655   -0.8354   -0.1554 N.pl3     1 ATP        -0.4772
     25 C5         -3.8852   -0.1874   -1.3253 C.ar      1 ATP        -0.1305
     26 C6         -4.7113    0.7160   -2.1458 C.ar      1 ATP         0.7186
     27 N6         -5.9213    1.0209   -1.8021 N.2       1 ATP        -0.8115
     28 N1         -4.0411    1.1673   -3.2764 N.pl3     1 ATP        -0.8400
     29 C2         -2.7403    0.7865   -3.5638 C.ar      1 ATP         0.6671
     30 N3         -1.9921   -0.0108   -2.8519 N.2       1 ATP        -0.5806
     31 C4         -2.6302   -0.4747   -1.7239 C.ar      1 ATP         0.2748
     32 HOG3        3.0473   -9.2325    3.8492 H         1 ATP         0.4327
     33 HOB2        2.3137   -5.8827    0.3829 H         1 ATP         0.4701
     34 H5'1       -1.7618   -3.4448    2.4164 H         1 ATP         0.0401
     35 H5'2       -0.1874   -3.8744    3.1341 H         1 ATP         0.0401
     36 H4'         0.8874   -3.6466    0.8805 H         1 ATP         0.1136
     37 H3'        -0.7376   -1.2333    1.9867 H         1 ATP         0.0693
     38 HO3'        1.3408   -0.4870    2.3219 H         1 ATP         0.4124
     39 H2'        -0.0384   -0.0310    0.0096 H         1 ATP         0.0854
     40 HO2'        2.1463   -0.7958    0.0370 H         1 ATP         0.4367
     41 H1'        -0.4769   -2.1002   -1.8093 H         1 ATP         0.1343
     42 H8         -2.9569   -2.1323    1.0098 H         1 ATP         0.3302
     43 HN62       -6.3169    1.6552   -2.5012 H         1 ATP         0.4160
     44 H2         -2.3612    1.2343   -4.4957 H         1 ATP         0.0756
     45 H45        -4.5223    1.7976   -3.9117 H         1 ATP         0.4587
     46 H46        -5.0218   -0.8132    0.3804 H         1 ATP         0.5254
@<TRIPOS>BOND
     1    1    2 2
     2    1    3 1
     3    1    4 1
     4    1    8 1
     5    4   32 1
     6    5    6 2
     7    5    7 1
     8    5    8 1
     9    5   12 1
    10    7   33 1
    11    9   10 2
    12    9   11 1
    13    9   12 1
    14    9   13 1
    15   13   14 1
    16   14   15 1
    17   14   34 1
    18   14   35 1
    19   15   16 1
    20   15   17 1
    21   15   36 1
    22   16   21 1
    23   17   18 1
    24   17   19 1
    25   17   37 1
    26   18   38 1
    27   19   20 1
    28   19   21 1
    29   19   39 1
    30   20   40 1
    31   21   22 1
    32   21   41 1
    33   22   23 ar
    34   22   31 ar
    35   23   24 ar
    36   23   42 1
    37   24   25 ar
    38   24   46 1
    39   25   26 ar
    40   25   31 ar
    41   26   27 2
    42   26   28 ar
    43   27   43 1
    44   28   29 ar
    45   28   45 1
    46   29   30 ar
    47   29   44 1
    48   30   31 ar
@<TRIPOS>SUBSTRUCTURE
     1 ATP         1 GROUP 0 A     ****
@<TRIPOS>MOLECULE
[[[3,4-dihydroxy-5-(6-imino-7,8-dihydro-1~{H}-purin-8-ylium-9-yl)tetrahydrofuran-2-yl]methoxy-oxido-phosphoryl]oxy-hydroxy-phosphoryl] hydrogen phosphate
   46    48     1     0     0
SMALL
USER_CHARGES

@<TRIPOS>ATOM
      1 PG          6.2530   -4.0650   -4.5248 P.3       1 ATP         1.5595
      2 O1G         5.4291   -4.2838   -3.2753 O.co2     1 ATP        -0.8438
      3 O2G         7.7317   -3.7600   -4.4369 O.co2     1 ATP        -0.8438
      4 O3G         6.0462   -5.3482   -5.5132 O.3       1 ATP        -0.7800
      5 PB          5.3037   -1.3495   -5.1747 P.3       1 ATP         1.9223
      6 O1B         6.5574   -0.5466   -4.9905 O.2       1 ATP        -0.8953
      7 O2B         4.3653   -0.8822   -6.4054 O.3       1 ATP        -0.8165
      8 O3B         5.5289   -2.9276   -5.4424 O.3       1 ATP        -0.8247
      9 PA          2.8603   -2.1314   -3.7189 P.3       1 ATP         1.6157
     10 O1A         3.0799   -3.6282   -3.7534 O.co2     1 ATP        -0.8629
     11 O2A         1.8577   -1.4754   -4.6432 O.co2     1 ATP        -0.8629
     12 O3A         4.2991   -1.3837   -3.9101 O.3       1 ATP        -0.8191
     13 O5'         2.5245   -1.6648   -2.1878 O.3       1 ATP        -0.5644
     14 C5'         2.2816   -0.2918   -1.9206 C.3       1 ATP         0.2062
     15 C4'         2.7248    0.0226   -0.4980 C.3       1 ATP         0.0971
     16 O4'         2.4697    1.4219   -0.2462 O.3       1 ATP        -0.3662
     17 C3'         1.9404   -0.7419    0.5596 C.3       1 ATP         0.0734
     18 O3'         2.7418   -0.8086    1.7389 O.3       1 ATP        -0.5671
     19 C2'         0.7477    0.1630    0.7858 C.3       1 ATP         0.0745
     20 O2'         0.1373   -0.0577    2.0407 O.3       1 ATP        -0.5794
     21 C1'         1.3733    1.5427    0.6747 C.3       1 ATP         0.3824
     22 N9          0.4520    2.5240    0.1767 N.pl3     1 ATP        -0.4324
     23 C8         -0.2004    2.4829   -0.9804 C.ar      1 ATP         0.2662
     24 N7         -0.9830    3.5431   -1.1568 N.pl3     1 ATP        -0.4772
     25 C5         -0.8095    4.3012   -0.0331 C.ar      1 ATP        -0.1305
     26 C6         -1.4065    5.5904    0.3585 C.ar      1 ATP         0.7186
     27 N6         -2.2501    6.2030   -0.4084 N.2       1 ATP        -0.8115
     28 N1         -0.9585    6.0272    1.5994 N.pl3     1 ATP        -0.8400
     29 C2         -0.0508    5.3009    2.3532 C.ar      1 ATP         0.6671
     30 N3          0.4890    4.1592    2.0257 N.2       1 ATP        -0.5806
     31 C4          0.0637    3.7006    0.7995 C.ar      1 ATP         0.2748
     32 HOG3        6.5192   -5.3565   -6.3725 H         1 ATP         0.4327
     33 HOB2        4.0058    0.0305   -6.4081 H         1 ATP         0.4701
     34 H5'1        2.8432    0.3119   -2.6398 H         1 ATP         0.0401
     35 H5'2        1.2128   -0.0927   -2.0428 H         1 ATP         0.0401
     36 H4'         3.8044   -0.1397   -0.4040 H         1 ATP         0.1136
     37 H3'         1.6764   -1.7639    0.2728 H         1 ATP         0.0693
     38 HO3'        2.2232   -1.2979    2.3953 H         1 ATP         0.4124
     39 H2'        -0.0011    0.0027    0.0003 H         1 ATP         0.0854
     40 HO2'       -0.1563   -0.9855    2.0596 H         1 ATP         0.4367
     41 H1'         1.7826    1.9024    1.6451 H         1 ATP         0.1343
     42 H8         -0.1116    1.6863   -1.6984 H         1 ATP         0.3302
     43 HN62       -2.5420    7.0730    0.0447 H         1 ATP         0.4160
     44 H2          0.1969    5.7893    3.3086 H         1 ATP         0.0756
     45 H45        -1.3097    6.9080    1.9642 H         1 ATP         0.4587
     46 H46        -1.5735    3.7351   -1.9538 H         1 ATP         0.5254
@<TRIPOS>BOND
     1    1    2 2
     2    1    3 1
     3    1    4 1
     4    1    8 1
     5    4   32 1
     6    5    6 2
     7    5    7 1
     8    5    8 1
     9    5   12 1
    10    7   33 1
    11    9   10 2
    12    9   11 1
    13    9   12 1
    14    9   13 1
    15   13   14 1
    16   14   15 1
    17   14   34 1
    18   14   35 1
    19   15   16 1
    20   15   17 1
    21   15   36 1
    22   16   21 1
    23   17   18 1
    24   17   19 1
    25   17   37 1
    26   18   38 1
    27   19   20 1
    28   19   21 1
    29   19   39 1
    30   20   40 1
    31   21   22 1
    32   21   41 1
    33   22   23 ar
    34   22   31 ar
    35   23   24 ar
    36   23   42 1
    37   24   25 ar
    38   24   46 1
    39   25   26 ar
    40   25   31 ar
    41   26   27 2
    42   26   28 ar
    43   27   43 1
    44   28   29 ar
    45   28   45 1
    46   29   30 ar
    47   29   44 1
    48   30   31 ar
@<TRIPOS>SUBSTRUCTURE
     1 ATP         1 GROUP 0 A     ****
@<TRIPOS>MOLECULE
[[[3,4-dihydroxy-5-(6-imino-7,8-dihydro-1~{H}-purin-8-ylium-9-yl)tetrahydrofuran-2-yl]methoxy-oxido-phosphoryl]oxy-hydroxy-phosphoryl] hydrogen phosphate
   46    48     1     0     0
SMALL
USER_CHARGES

@<TRIPOS>ATOM
      1 PG          3.6652    0.8888   -6.1765 P.3       1 ATP         1.5595
      2 O1G         4.7136    1.9753   -6.0866 O.co2     1 ATP        -0.8438
      3 O2G         2.5449    0.8044   -5.1640 O.co2     1 ATP        -0.8438
      4 O3G         3.0108    0.9225   -7.6721 O.3       1 ATP        -0.7800
      5 PB          5.3037   -1.3495   -5.1747 P.3       1 ATP         1.9223
      6 O1B         5.8331   -2.6793   -5.6236 O.2       1 ATP        -0.8953
      7 O2B         6.4307   -0.2717   -4.7482 O.3       1 ATP        -0.8165
      8 O3B         4.4112   -0.5588   -6.2661 O.3       1 ATP        -0.8247
      9 PA          2.8603   -2.1314   -3.7189 P.3       1 ATP         1.6157
     10 O1A         3.0799   -3.6282   -3.7534 O.co2     1 ATP        -0.8629
     11 O2A         1.8577   -1.4754   -4.6432 O.co2     1 ATP        -0.8629
     12 O3A         4.2991   -1.3837   -3.9101 O.3       1 ATP        -0.8191
     13 O5'         2.5245   -1.6648   -2.1878 O.3       1 ATP        -0.5644
     14 C5'         2.2816   -0.2918   -1.9206 C.3       1 ATP         0.2062
     15 C4'         2.7248    0.0226   -0.4980 C.3       1 ATP         0.0971
     16 O4'         2.4697    1.4219   -0.2462 O.3       1 ATP        -0.3662
     17 C3'         1.9404   -0.7419    0.5596 C.3       1 ATP         0.0734
     18 O3'         2.7418   -0.8086    1.7389 O.3       1 ATP        -0.5671
     19 C2'         0.7477    0.1630    0.7858 C.3       1 ATP         0.0745
     20 O2'         0.1373   -0.0577    2.0407 O.3       1 ATP        -0.5794
     21 C1'         1.3733    1.5427    0.6747 C.3       1 ATP         0.3824
     22 N9          0.4520    2.5240    0.1767 N.pl3     1 ATP        -0.4324
     23 C8          0.2216    2.8192   -1.0985 C.ar      1 ATP         0.2662
     24 N7         -0.6906    3.7763   -1.2384 N.pl3     1 ATP        -0.4772
     25 C5         -1.0575    4.1037    0.0366 C.ar      1 ATP        -0.1305
     26 C6         -2.0291    5.0943    0.5330 C.ar      1 ATP         0.7186
     27 N6         -2.7093    5.8371   -0.2800 N.2       1 ATP        -0.8115
     28 N1         -2.1051    5.1136    1.9204 N.pl3     1 ATP        -0.8400
     29 C2         -1.3354    4.2774    2.7129 C.ar      1 ATP         0.6671
     30 N3         -0.4707    3.3945    2.2944 N.2       1 ATP        -0.5806
     31 C4         -0.3734    3.3525    0.9220 C.ar      1 ATP         0.2748
     32 HOG3        2.3089    0.2726   -7.8892 H         1 ATP         0.4327
     33 HOB2        7.0971    0.0061   -5.4123 H         1 ATP         0.4701
     34 H5'1        2.8432    0.3119   -2.6398 H         1 ATP         0.0401
     35 H5'2        1.2128   -0.0927   -2.0428 H         1 ATP         0.0401
     36 H4'         3.8044   -0.1397   -0.4040 H         1 ATP         0.1136
     37 H3'         1.6764   -1.7639    0.2728 H         1 ATP         0.0693
     38 HO3'        2.2232   -1.2979    2.3953 H         1 ATP         0.4124
     39 H2'        -0.0011    0.0027    0.0003 H         1 ATP         0.0854
     40 HO2'       -0.1563   -0.9855    2.0596 H         1 ATP         0.4367
     41 H1'         1.7826    1.9024    1.6451 H         1 ATP         0.1343
     42 H8          0.7125    2.3429   -1.9292 H         1 ATP         0.3302
     43 HN62       -3.3217    6.4517    0.2629 H         1 ATP         0.4160
     44 H2         -1.5188    4.4223    3.7890 H         1 ATP         0.0756
     45 H45        -2.7470    5.7627    2.3665 H         1 ATP         0.4587
     46 H46        -1.0305    4.1680   -2.1054 H         1 ATP         0.5254
@<TRIPOS>BOND
     1    1    2 2
     2    1    3 1
     3    1    4 1
     4    1    8 1
     5    4   32 1
     6    5    6 2
     7    5    7 1
     8    5    8 1
     9    5   12 1
    10    7   33 1
    11    9   10 2
    12    9   11 1
    13    9   12 1
    14    9   13 1
    15   13   14 1
    16   14   15 1
    17   14   34 1
    18   14   35 1
    19   15   16 1
    20   15   17 1
    21   15   36 1
    22   16   21 1
    23   17   18 1
    24   17   19 1
    25   17   37 1
    26   18   38 1
    27   19   20 1
    28   19   21 1
    29   19   39 1
    30   20   40 1
    31   21   22 1
    32   21   41 1
    33   22   23 ar
    34   22   31 ar
    35   23   24 ar
    36   23   42 1
    37   24   25 ar
    38   24   46 1
    39   25   26 ar
    40   25   31 ar
    41   26   27 2
    42   26   28 ar
    43   27   43 1
    44   28   29 ar
    45   28   45 1
    46   29   30 ar
    47   29   44 1
    48   30   31 ar
@<TRIPOS>SUBSTRUCTURE
     1 ATP         1 GROUP 0 A     ****
@<TRIPOS>MOLECULE
[[[3,4-dihydroxy-5-(6-imino-7,8-dihydro-1~{H}-purin-8-ylium-9-yl)tetrahydrofuran-2-yl]methoxy-oxido-phosphoryl]oxy-hydroxy-phosphoryl] hydrogen phosphate
   46    48     1     0     0
SMALL
USER_CHARGES

@<TRIPOS>ATOM
      1 PG         -6.7591   -3.8135    1.8048 P.3       1 ATP         1.5595
      2 O1G        -6.3623   -2.8830    0.6803 O.co2     1 ATP        -0.8438
      3 O2G        -7.6038   -3.3214    2.9588 O.co2     1 ATP        -0.8438
      4 O3G        -7.4793   -5.1291    1.1592 O.3       1 ATP        -0.7800
      5 PB         -4.2511   -5.3564    1.6410 P.3       1 ATP         1.9223
      6 O1B        -4.7067   -6.5833    0.9078 O.2       1 ATP        -0.8953
      7 O2B        -3.5233   -4.2410    0.7246 O.3       1 ATP        -0.8165
      8 O3B        -5.4184   -4.5307    2.3949 O.3       1 ATP        -0.8247
      9 PA         -1.7207   -6.2768    2.8457 P.3       1 ATP         1.6157
     10 O1A        -1.8041   -7.6468    2.2084 O.co2     1 ATP        -0.8629
     11 O2A        -1.1159   -6.0993    4.2214 O.co2     1 ATP        -0.8629
     12 O3A        -3.2097   -5.6068    2.8503 O.3       1 ATP        -0.8191
     13 O5'        -0.9724   -5.2440    1.8220 O.3       1 ATP        -0.5644
     14 C5'        -0.7840   -3.8935    2.2172 C.3       1 ATP         0.2062
     15 C4'        -0.0724   -3.1466    1.1027 C.3       1 ATP         0.0971
     16 O4'        -0.8674   -3.1929   -0.0945 O.3       1 ATP        -0.3662
     17 C3'         0.1338   -1.6715    1.4027 C.3       1 ATP         0.0734
     18 O3'         1.2893   -1.4445    2.1808 O.3       1 ATP        -0.5671
     19 C2'         0.2158   -1.0724    0.0128 C.3       1 ATP         0.0745
     20 O2'         1.5141   -1.2448   -0.5513 O.3       1 ATP        -0.5794
     21 C1'        -0.7897   -1.9176   -0.7583 C.3       1 ATP         0.3824
     22 N9         -2.1040   -1.3333   -0.7704 N.pl3     1 ATP        -0.4324
     23 C8         -3.0590   -1.5123    0.1363 C.ar      1 ATP         0.2662
     24 N7         -4.1655   -0.8354   -0.1554 N.pl3     1 ATP        -0.4772
     25 C5         -3.8852   -0.1874   -1.3253 C.ar      1 ATP        -0.1305
     26 C6         -4.7113    0.7160   -2.1458 C.ar      1 ATP         0.7186
     27 N6         -5.9213    1.0209   -1.8021 N.2       1 ATP        -0.8115
     28 N1         -4.0411    1.1673   -3.2764 N.pl3     1 ATP        -0.8400
     29 C2         -2.7403    0.7865   -3.5638 C.ar      1 ATP         0.6671
     30 N3         -1.9921   -0.0108   -2.8519 N.2       1 ATP        -0.5806
     31 C4         -2.6302   -0.4747   -1.7239 C.ar      1 ATP         0.2748
     32 HOG3       -7.7965   -5.8321    1.7652 H         1 ATP         0.4327
     33 HOB2       -4.0207   -3.8407   -0.0202 H         1 ATP         0.4701
     34 H5'1       -1.7618   -3.4448    2.4164 H         1 ATP         0.0401
     35 H5'2       -0.1874   -3.8744    3.1341 H         1 ATP         0.0401
     36 H4'         0.8874   -3.6466    0.8805 H         1 ATP         0.1136
     37 H3'        -0.7376   -1.2333    1.9867 H         1 ATP         0.0693
     38 HO3'        1.1626   -1.9325    3.0084 H         1 ATP         0.4124
     39 H2'        -0.0384   -0.0310    0.0096 H         1 ATP         0.0854
     40 HO2'        2.1463   -0.7958    0.0370 H         1 ATP         0.4367
     41 H1'        -0.4769   -2.1002   -1.8093 H         1 ATP         0.1343
     42 H8         -2.9569   -2.1323    1.0098 H         1 ATP         0.3302
     43 HN62       -6.3169    1.6552   -2.5012 H         1 ATP         0.4160
     44 H2         -2.3612    1.2343   -4.4957 H         1 ATP         0.0756
     45 H45        -4.5223    1.7976   -3.9117 H         1 ATP         0.4587
     46 H46        -5.0218   -0.8132    0.3804 H         1 ATP         0.5254
@<TRIPOS>BOND
     1    1    2 2
     2    1    3 1
     3    1    4 1
     4    1    8 1
     5    4   32 1
     6    5    6 2
     7    5    7 1
     8    5    8 1
     9    5   12 1
    10    7   33 1
    11    9   10 2
    12    9   11 1
    13    9   12 1
    14    9   13 1
    15   13   14 1
    16   14   15 1
    17   14   34 1
    18   14   35 1
    19   15   16 1
    20   15   17 1
    21   15   36 1
    22   16   21 1
    23   17   18 1
    24   17   19 1
    25   17   37 1
    26   18   38 1
    27   19   20 1
    28   19   21 1
    29   19   39 1
    30   20   40 1
    31   21   22 1
    32   21   41 1
    33   22   23 ar
    34   22   31 ar
    35   23   24 ar
    36   23   42 1
    37   24   25 ar
    38   24   46 1
    39   25   26 ar
    40   25   31 ar
    41   26   27 2
    42   26   28 ar
    43   27   43 1
    44   28   29 ar
    45   28   45 1
    46   29   30 ar
    47   29   44 1
    48   30   31 ar
@<TRIPOS>SUBSTRUCTURE
     1 ATP         1 GROUP 0 A     ****
@<TRIPOS>MOLECULE
[[[3,4-dihydroxy-5-(6-imino-7,8-dihydro-1~{H}-purin-8-ylium-9-yl)tetrahydrofuran-2-yl]methoxy-oxido-phosphoryl]oxy-hydroxy-phosphoryl] hydrogen phosphate
   46    48     1     0     0
SMALL
USER_CHARGES

@<TRIPOS>ATOM
      1 PG          7.8556    0.0816   -3.2400 P.3       1 ATP         1.5595
      2 O1G         8.6676   -0.3472   -2.0381 O.co2     1 ATP        -0.8438
      3 O2G         6.8194    1.1774   -3.1267 O.co2     1 ATP        -0.8438
      4 O3G         8.8832    0.4629   -4.4503 O.3       1 ATP        -0.7800
      5 PB          6.0181   -2.2230   -3.3400 P.3       1 ATP         1.9223
      6 O1B         5.6314   -3.3479   -4.2541 O.2       1 ATP        -0.8953
      7 O2B         6.5847   -2.6775   -1.8958 O.3       1 ATP        -0.8165
      8 O3B         7.1653   -1.2363   -3.9084 O.3       1 ATP        -0.8247
      9 PA          3.9552   -0.2066   -3.9564 P.3       1 ATP         1.6157
     10 O1A         3.0907   -1.0735   -4.8457 O.co2     1 ATP        -0.8629
     11 O2A         4.8706    0.8411   -4.5517 O.co2     1 ATP        -0.8629
     12 O3A         4.8445   -1.1714   -2.9846 O.3       1 ATP        -0.8191
     13 O5'         3.0213    0.5153   -2.8245 O.3       1 ATP        -0.5644
     14 C5'         2.2816   -0.2918   -1.9206 C.3       1 ATP         0.2062
     15 C4'         2.7248    0.0226   -0.4980 C.3       1 ATP         0.0971
     16 O4'         2.4697    1.4219   -0.2462 O.3       1 ATP        -0.3662
     17 C3'         1.9404   -0.7419    0.5596 C.3       1 ATP         0.0734
     18 O3'         2.7418   -0.8086    1.7389 O.3       1 ATP        -0.5671
     19 C2'         0.7477    0.1630    0.7858 C.3       1 ATP         0.0745
     20 O2'         0.1373   -0.0577    2.0407 O.3       1 ATP        -0.5794
     21 C1'         1.3733    1.5427    0.6747 C.3       1 ATP         0.3824
     22 N9          0.4520    2.5240    0.1767 N.pl3     1 ATP        -0.4324
     23 C8          0.2216    2.8192   -1.0985 C.ar      1 ATP         0.2662
     24 N7         -0.6906    3.7763   -1.2384 N.pl3     1 ATP        -0.4772
     25 C5         -1.0575    4.1037    0.0366 C.ar      1 ATP        -0.1305
     26 C6         -2.0291    5.0943    0.5330 C.ar      1 ATP         0.7186
     27 N6         -2.7093    5.8371   -0.2800 N.2       1 ATP        -0.8115
     28 N1         -2.1051    5.1136    1.9204 N.pl3     1 ATP        -0.8400
     29 C2         -1.3354    4.2774    2.7129 C.ar      1 ATP         0.6671
     30 N3         -0.4707    3.3945    2.2944 N.2       1 ATP        -0.5806
     31 C4         -0.3734    3.3525    0.9220 C.ar      1 ATP         0.2748
     32 HOG3        8.5068    0.7624   -5.3052 H         1 ATP         0.4327
     33 HOB2        7.3899   -3.2365   -1.8564 H         1 ATP         0.4701
     34 H5'1        1.2163   -0.0770   -2.0471 H         1 ATP         0.0401
     35 H5'2        2.4655   -1.3443   -2.1563 H         1 ATP         0.0401
     36 H4'         3.8044   -0.1397   -0.4040 H         1 ATP         0.1136
     37 H3'         1.6764   -1.7639    0.2728 H         1 ATP         0.0693
     38 HO3'        2.2232   -1.2979    2.3953 H         1 ATP         0.4124
     39 H2'        -0.0011    0.0027    0.0003 H         1 ATP         0.0854
     40 HO2'       -0.6141    0.5574    2.1082 H         1 ATP         0.4367
     41 H1'         1.7826    1.9024    1.6451 H         1 ATP         0.1343
     42 H8          0.7125    2.3429   -1.9292 H         1 ATP         0.3302
     43 HN62       -3.3217    6.4517    0.2629 H         1 ATP         0.4160
     44 H2         -1.5188    4.4223    3.7890 H         1 ATP         0.0756
     45 H45        -2.7470    5.7627    2.3665 H         1 ATP         0.4587
     46 H46        -1.0305    4.1680   -2.1054 H         1 ATP         0.5254
@<TRIPOS>BOND
     1    1    2 2
     2    1    3 1
     3    1    4 1
     4    1    8 1
     5    4   32 1
     6    5    6 2
     7    5    7 1
     8    5    8 1
     9    5   12 1
    10    7   33 1
    11    9   10 2
    12    9   11 1
    13    9   12 1
    14    9   13 1
    15   13   14 1
    16   14   15 1
    17   14   34 1
    18   14   35 1
    19   15   16 1
    20   15   17 1
    21   15   36 1
    22   16   21 1
    23   17   18 1
    24   17   19 1
    25   17   37 1
    26   18   38 1
    27   19   20 1
    28   19   21 1
    29   19   39 1
    30   20   40 1
    31   21   22 1
    32   21   41 1
    33   22   23 ar
    34   22   31 ar
    35   23   24 ar
    36   23   42 1
    37   24   25 ar
    38   24   46 1
    39   25   26 ar
    40   25   31 ar
    41   26   27 2
    42   26   28 ar
    43   27   43 1
    44   28   29 ar
    45   28   45 1
    46   29   30 ar
    47   29   44 1
    48   30   31 ar
@<TRIPOS>SUBSTRUCTURE
     1 ATP         1 GROUP 0 A     ****
@<TRIPOS>MOLECULE
[[[3,4-dihydroxy-5-(6-imino-7,8-dihydro-1~{H}-purin-8-ylium-9-yl)tetrahydrofuran-2-yl]methoxy-oxido-phosphoryl]oxy-hydroxy-phosphoryl] hydrogen phosphate
   46    48     1     0     0
SMALL
USER_CHARGES

@<TRIPOS>ATOM
      1 PG         -6.4463   -4.9880    3.5756 P.3       1 ATP         1.5595
      2 O1G        -5.6575   -5.2399    4.8413 O.co2     1 ATP        -0.8438
      3 O2G        -7.3921   -6.0337    3.0285 O.co2     1 ATP        -0.8438
      4 O3G        -7.2660   -3.5861    3.7463 O.3       1 ATP        -0.7800
      5 PB         -4.2511   -5.3564    1.6410 P.3       1 ATP         1.9223
      6 O1B        -4.7067   -6.5833    0.9078 O.2       1 ATP        -0.8953
      7 O2B        -3.5233   -4.2410    0.7246 O.3       1 ATP        -0.8165
      8 O3B        -5.4184   -4.5307    2.3949 O.3       1 ATP        -0.8247
      9 PA         -1.7207   -6.2768    2.8457 P.3       1 ATP         1.6157
     10 O1A        -1.8041   -7.6468    2.2084 O.co2     1 ATP        -0.8629
     11 O2A        -1.1159   -6.0993    4.2214 O.co2     1 ATP        -0.8629
     12 O3A        -3.2097   -5.6068    2.8503 O.3       1 ATP        -0.8191
     13 O5'        -0.9724   -5.2440    1.8220 O.3       1 ATP        -0.5644
     14 C5'        -0.7840   -3.8935    2.2172 C.3       1 ATP         0.2062
     15 C4'        -0.0724   -3.1466    1.1027 C.3       1 ATP         0.0971
     16 O4'        -0.8674   -3.1929   -0.0945 O.3       1 ATP        -0.3662
     17 C3'         0.1338   -1.6715    1.4027 C.3       1 ATP         0.0734
     18 O3'         1.2893   -1.4445    2.1808 O.3       1 ATP        -0.5671
     19 C2'         0.2158   -1.0724    0.0128 C.3       1 ATP         0.0745
     20 O2'         1.5141   -1.2448   -0.5513 O.3       1 ATP        -0.5794
     21 C1'        -0.7897   -1.9176   -0.7583 C.3       1 ATP         0.3824
     22 N9         -2.1040   -1.3333   -0.7704 N.pl3     1 ATP        -0.4324
     23 C8         -3.0590   -1.5123    0.1363 C.ar      1 ATP         0.2662
     24 N7         -4.1655   -0.8354   -0.1554 N.pl3     1 ATP        -0.4772
     25 C5         -3.8852   -0.1874   -1.3253 C.ar      1 ATP        -0.1305
     26 C6         -4.7113    0.7160   -2.1458 C.ar      1 ATP         0.7186
     27 N6         -5.9213    1.0209   -1.8021 N.2       1 ATP        -0.8115
     28 N1         -4.0411    1.1673   -3.2764 N.pl3     1 ATP        -0.8400
     29 C2         -2.7403    0.7865   -3.5638 C.ar      1 ATP         0.6671
     30 N3         -1.9921   -0.0108   -2.8519 N.2       1 ATP        -0.5806
     31 C4         -2.6302   -0.4747   -1.7239 C.ar      1 ATP         0.2748
     32 HOG3       -7.8298   -3.2818    3.0035 H         1 ATP         0.4327
     33 HOB2       -4.0207   -3.8407   -0.0202 H         1 ATP         0.4701
     34 H5'1       -1.7618   -3.4448    2.4164 H         1 ATP         0.0401
     35 H5'2       -0.1874   -3.8744    3.1341 H         1 ATP         0.0401
     36 H4'         0.8874   -3.6466    0.8805 H         1 ATP         0.1136
     37 H3'        -0.7376   -1.2333    1.9867 H         1 ATP         0.0693
     38 HO3'        1.1626   -1.9325    3.0084 H         1 ATP         0.4124
     39 H2'        -0.0384   -0.0310    0.0096 H         1 ATP         0.0854
     40 HO2'        2.1463   -0.7958    0.0370 H         1 ATP         0.4367
     41 H1'        -0.4769   -2.1002   -1.8093 H         1 ATP         0.1343
     42 H8         -2.9569   -2.1323    1.0098 H         1 ATP         0.3302
     43 HN62       -6.3169    1.6552   -2.5012 H         1 ATP         0.4160
     44 H2         -2.3612    1.2343   -4.4957 H         1 ATP         0.0756
     45 H45        -4.5223    1.7976   -3.9117 H         1 ATP         0.4587
     46 H46        -5.0218   -0.8132    0.3804 H         1 ATP         0.5254
@<TRIPOS>BOND
     1    1    2 2
     2    1    3 1
     3    1    4 1
     4    1    8 1
     5    4   32 1
     6    5    6 2
     7    5    7 1
     8    5    8 1
     9    5   12 1
    10    7   33 1
    11    9   10 2
    12    9   11 1
    13    9   12 1
    14    9   13 1
    15   13   14 1
    16   14   15 1
    17   14   34 1
    18   14   35 1
    19   15   16 1
    20   15   17 1
    21   15   36 1
    22   16   21 1
    23   17   18 1
    24   17   19 1
    25   17   37 1
    26   18   38 1
    27   19   20 1
    28   19   21 1
    29   19   39 1
    30   20   40 1
    31   21   22 1
    32   21   41 1
    33   22   23 ar
    34   22   31 ar
    35   23   24 ar
    36   23   42 1
    37   24   25 ar
    38   24   46 1
    39   25   26 ar
    40   25   31 ar
    41   26   27 2
    42   26   28 ar
    43   27   43 1
    44   28   29 ar
    45   28   45 1
    46   29   30 ar
    47   29   44 1
    48   30   31 ar
@<TRIPOS>SUBSTRUCTURE
     1 ATP         1 GROUP 0 A     ****
@<TRIPOS>MOLECULE
[[[3,4-dihydroxy-5-(6-imino-7,8-dihydro-1~{H}-purin-8-ylium-9-yl)tetrahydrofuran-2-yl]methoxy-oxido-phosphoryl]oxy-hydroxy-phosphoryl] hydrogen phosphate
   46    48     1     0     0
SMALL
USER_CHARGES

@<TRIPOS>ATOM
      1 PG          1.7471   -3.5507   -4.0928 P.3       1 ATP         1.5595
      2 O1G         2.8299   -4.1203   -4.9820 O.co2     1 ATP        -0.8438
      3 O2G         0.3083   -3.9931   -4.2400 O.co2     1 ATP        -0.8438
      4 O3G         2.1951   -3.7536   -2.5358 O.3       1 ATP        -0.7800
      5 PB          1.5055   -0.9074   -5.3782 P.3       1 ATP         1.9223
      6 O1B         2.3643   -1.0911   -6.5944 O.2       1 ATP        -0.8953
      7 O2B        -0.0825   -1.0781   -5.6286 O.3       1 ATP        -0.8165
      8 O3B         1.8122   -1.9224   -4.1581 O.3       1 ATP        -0.8247
      9 PA          2.9230    1.2546   -3.9578 P.3       1 ATP         1.6157
     10 O1A         2.4619    2.5263   -3.2796 O.co2     1 ATP        -0.8629
     11 O2A         4.0434    1.2827   -4.9744 O.co2     1 ATP        -0.8629
     12 O3A         1.6316    0.5231   -4.6386 O.3       1 ATP        -0.8191
     13 O5'         3.2903    0.1346   -2.8241 O.3       1 ATP        -0.5644
     14 C5'         2.2816   -0.2918   -1.9206 C.3       1 ATP         0.2062
     15 C4'         2.7248    0.0226   -0.4980 C.3       1 ATP         0.0971
     16 O4'         2.4697    1.4219   -0.2462 O.3       1 ATP        -0.3662
     17 C3'         1.9404   -0.7419    0.5596 C.3       1 ATP         0.0734
     18 O3'         2.7418   -0.8086    1.7389 O.3       1 ATP        -0.5671
     19 C2'         0.7477    0.1630    0.7858 C.3       1 ATP         0.0745
     20 O2'         0.1373   -0.0577    2.0407 O.3       1 ATP        -0.5794
     21 C1'         1.3733    1.5427    0.6747 C.3       1 ATP         0.3824
     22 N9          0.4520    2.5240    0.1767 N.pl3     1 ATP        -0.4324
     23 C8         -0.2004    2.4829   -0.9804 C.ar      1 ATP         0.2662
     24 N7         -0.9830    3.5431   -1.1568 N.pl3     1 ATP        -0.4772
     25 C5         -0.8095    4.3012   -0.0331 C.ar      1 ATP        -0.1305
     26 C6         -1.4065    5.5904    0.3585 C.ar      1 ATP         0.7186
     27 N6         -2.2501    6.2030   -0.4084 N.2       1 ATP        -0.8115
     28 N1         -0.9585    6.0272    1.5994 N.pl3     1 ATP        -0.8400
     29 C2         -0.0508    5.3009    2.3532 C.ar      1 ATP         0.6671
     30 N3          0.4890    4.1592    2.0257 N.2       1 ATP        -0.5806
     31 C4          0.0637    3.7006    0.7995 C.ar      1 ATP         0.2748
     32 HOG3        1.5925   -3.4332   -1.8312 H         1 ATP         0.4327
     33 HOB2       -0.4199   -1.9340   -5.9691 H         1 ATP         0.4701
     34 H5'1        1.3514    0.2330   -2.1577 H         1 ATP         0.0401
     35 H5'2        2.1280   -1.3678   -2.0460 H         1 ATP         0.0401
     36 H4'         3.8044   -0.1397   -0.4040 H         1 ATP         0.1136
     37 H3'         1.6764   -1.7639    0.2728 H         1 ATP         0.0693
     38 HO3'        2.2232   -1.2979    2.3953 H         1 ATP         0.4124
     39 H2'        -0.0011    0.0027    0.0003 H         1 ATP         0.0854
     40 HO2'       -0.6141    0.5574    2.1082 H         1 ATP         0.4367
     41 H1'         1.7826    1.9024    1.6451 H         1 ATP         0.1343
     42 H8         -0.1116    1.6863   -1.6984 H         1 ATP         0.3302
     43 HN62       -2.5420    7.0730    0.0447 H         1 ATP         0.4160
     44 H2          0.1969    5.7893    3.3086 H         1 ATP         0.0756
     45 H45        -1.3097    6.9080    1.9642 H         1 ATP         0.4587
     46 H46        -1.5735    3.7351   -1.9538 H         1 ATP         0.5254
@<TRIPOS>BOND
     1    1    2 2
     2    1    3 1
     3    1    4 1
     4    1    8 1
     5    4   32 1
     6    5    6 2
     7    5    7 1
     8    5    8 1
     9    5   12 1
    10    7   33 1
    11    9   10 2
    12    9   11 1
    13    9   12 1
    14    9   13 1
    15   13   14 1
    16   14   15 1
    17   14   34 1
    18   14   35 1
    19   15   16 1
    20   15   17 1
    21   15   36 1
    22   16   21 1
    23   17   18 1
    24   17   19 1
    25   17   37 1
    26   18   38 1
    27   19   20 1
    28   19   21 1
    29   19   39 1
    30   20   40 1
    31   21   22 1
    32   21   41 1
    33   22   23 ar
    34   22   31 ar
    35   23   24 ar
    36   23   42 1
    37   24   25 ar
    38   24   46 1
    39   25   26 ar
    40   25   31 ar
    41   26   27 2
    42   26   28 ar
    43   27   43 1
    44   28   29 ar
    45   28   45 1
    46   29   30 ar
    47   29   44 1
    48   30   31 ar
@<TRIPOS>SUBSTRUCTURE
     1 ATP         1 GROUP 0 A     ****
@<TRIPOS>MOLECULE
[[[3,4-dihydroxy-5-(6-imino-7,8-dihydro-1~{H}-purin-8-ylium-9-yl)tetrahydrofuran-2-yl]methoxy-oxido-phosphoryl]oxy-hydroxy-phosphoryl] hydrogen phosphate
   46    48     1     0     0
SMALL
USER_CHARGES

@<TRIPOS>ATOM
      1 PG          8.5536   -0.9790   -0.6707 P.3       1 ATP         1.5595
      2 O1G         8.2024   -0.5296    0.7302 O.co2     1 ATP        -0.8438
      3 O2G         9.6204   -0.2656   -1.4710 O.co2     1 ATP        -0.8438
      4 O3G         8.9143   -2.5709   -0.6292 O.3       1 ATP        -0.7800
      5 PB          6.1907    0.1115   -2.0583 P.3       1 ATP         1.9223
      6 O1B         5.5545    0.9201   -0.9666 O.2       1 ATP        -0.8953
      7 O2B         7.0876    0.9575   -3.1040 O.3       1 ATP        -0.8165
      8 O3B         7.1873   -1.0586   -1.5579 O.3       1 ATP        -0.8247
      9 PA          3.9552   -0.2066   -3.9564 P.3       1 ATP         1.6157
     10 O1A         3.2311   -1.4130   -4.5133 O.co2     1 ATP        -0.8629
     11 O2A         4.4938    0.8658   -4.8783 O.co2     1 ATP        -0.8629
     12 O3A         5.1749   -0.7199   -2.9999 O.3       1 ATP        -0.8191
     13 O5'         3.0213    0.5153   -2.8245 O.3       1 ATP        -0.5644
     14 C5'         2.2816   -0.2918   -1.9206 C.3       1 ATP         0.2062
     15 C4'         2.7248    0.0226   -0.4980 C.3       1 ATP         0.0971
     16 O4'         2.4697    1.4219   -0.2462 O.3       1 ATP        -0.3662
     17 C3'         1.9404   -0.7419    0.5596 C.3       1 ATP         0.0734
     18 O3'         2.7418   -0.8086    1.7389 O.3       1 ATP        -0.5671
     19 C2'         0.7477    0.1630    0.7858 C.3       1 ATP         0.0745
     20 O2'         0.1373   -0.0577    2.0407 O.3       1 ATP        -0.5794
     21 C1'         1.3733    1.5427    0.6747 C.3       1 ATP         0.3824
     22 N9          0.4520    2.5240    0.1767 N.pl3     1 ATP        -0.4324
     23 C8         -0.2004    2.4829   -0.9804 C.ar      1 ATP         0.2662
     24 N7         -0.9830    3.5431   -1.1568 N.pl3     1 ATP        -0.4772
     25 C5         -0.8095    4.3012   -0.0331 C.ar      1 ATP        -0.1305
     26 C6         -1.4065    5.5904    0.3585 C.ar      1 ATP         0.7186
     27 N6         -2.2501    6.2030   -0.4084 N.2       1 ATP        -0.8115
     28 N1         -0.9585    6.0272    1.5994 N.pl3     1 ATP        -0.8400
     29 C2         -0.0508    5.3009    2.3532 C.ar      1 ATP         0.6671
     30 N3          0.4890    4.1592    2.0257 N.2       1 ATP        -0.5806
     31 C4          0.0637    3.7006    0.7995 C.ar      1 ATP         0.2748
     32 HOG3        9.1649   -3.0147   -1.4673 H         1 ATP         0.4327
     33 HOB2        6.6625    1.6726   -3.6237 H         1 ATP         0.4701
     34 H5'1        1.2163   -0.0770   -2.0471 H         1 ATP         0.0401
     35 H5'2        2.4655   -1.3443   -2.1563 H         1 ATP         0.0401
     36 H4'         3.8044   -0.1397   -0.4040 H         1 ATP         0.1136
     37 H3'         1.6764   -1.7639    0.2728 H         1 ATP         0.0693
     38 HO3'        2.2232   -1.2979    2.3953 H         1 ATP         0.4124
     39 H2'        -0.0011    0.0027    0.0003 H         1 ATP         0.0854
     40 HO2'       -0.1563   -0.9855    2.0596 H         1 ATP         0.4367
     41 H1'         1.7826    1.9024    1.6451 H         1 ATP         0.1343
     42 H8         -0.1116    1.6863   -1.6984 H         1 ATP         0.3302
     43 HN62       -2.5420    7.0730    0.0447 H         1 ATP         0.4160
     44 H2          0.1969    5.7893    3.3086 H         1 ATP         0.0756
     45 H45        -1.3097    6.9080    1.9642 H         1 ATP         0.4587
     46 H46        -1.5735    3.7351   -1.9538 H         1 ATP         0.5254
@<TRIPOS>BOND
     1    1    2 2
     2    1    3 1
     3    1    4 1
     4    1    8 1
     5    4   32 1
     6    5    6 2
     7    5    7 1
     8    5    8 1
     9    5   12 1
    10    7   33 1
    11    9   10 2
    12    9   11 1
    13    9   12 1
    14    9   13 1
    15   13   14 1
    16   14   15 1
    17   14   34 1
    18   14   35 1
    19   15   16 1
    20   15   17 1
    21   15   36 1
    22   16   21 1
    23   17   18 1
    24   17   19 1
    25   17   37 1
    26   18   38 1
    27   19   20 1
    28   19   21 1
    29   19   39 1
    30   20   40 1
    31   21   22 1
    32   21   41 1
    33   22   23 ar
    34   22   31 ar
    35   23   24 ar
    36   23   42 1
    37   24   25 ar
    38   24   46 1
    39   25   26 ar
    40   25   31 ar
    41   26   27 2
    42   26   28 ar
    43   27   43 1
    44   28   29 ar
    45   28   45 1
    46   29   30 ar
    47   29   44 1
    48   30   31 ar
@<TRIPOS>SUBSTRUCTURE
     1 ATP         1 GROUP 0 A     ****
@<TRIPOS>MOLECULE
[[[3,4-dihydroxy-5-(6-imino-7,8-dihydro-1~{H}-purin-8-ylium-9-yl)tetrahydrofuran-2-yl]methoxy-oxido-phosphoryl]oxy-hydroxy-phosphoryl] hydrogen phosphate
   46    48     1     0     0
SMALL
USER_CHARGES

@<TRIPOS>ATOM
      1 PG         -3.5142   -4.4830    5.9075 P.3       1 ATP         1.5595
      2 O1G        -4.5774   -3.4074    5.9299 O.co2     1 ATP        -0.8438
      3 O2G        -2.1333   -4.1993    5.3598 O.co2     1 ATP        -0.8438
      4 O3G        -3.3592   -5.0898    7.4155 O.3       1 ATP        -0.7800
      5 PB         -4.5543   -6.0440    3.6316 P.3       1 ATP         1.9223
      6 O1B        -5.0739   -7.4160    3.3187 O.2       1 ATP        -0.8953
      7 O2B        -5.5872   -4.8360    3.3360 O.3       1 ATP        -0.8165
      8 O3B        -4.1174   -5.8066    5.1697 O.3       1 ATP        -0.8247
      9 PA         -1.7207   -6.2768    2.8457 P.3       1 ATP         1.6157
     10 O1A        -1.8041   -7.6468    2.2084 O.co2     1 ATP        -0.8629
     11 O2A        -1.1159   -6.0993    4.2214 O.co2     1 ATP        -0.8629
     12 O3A        -3.2097   -5.6068    2.8503 O.3       1 ATP        -0.8191
     13 O5'        -0.9724   -5.2440    1.8220 O.3       1 ATP        -0.5644
     14 C5'        -0.7840   -3.8935    2.2172 C.3       1 ATP         0.2062
     15 C4'        -0.0724   -3.1466    1.1027 C.3       1 ATP         0.0971
     16 O4'        -0.8674   -3.1929   -0.0945 O.3       1 ATP        -0.3662
     17 C3'         0.1338   -1.6715    1.4027 C.3       1 ATP         0.0734
     18 O3'         1.2893   -1.4445    2.1808 O.3       1 ATP        -0.5671
     19 C2'         0.2158   -1.0724    0.0128 C.3       1 ATP         0.0745
     20 O2'         1.5141   -1.2448   -0.5513 O.3       1 ATP        -0.5794
     21 C1'        -0.7897   -1.9176   -0.7583 C.3       1 ATP         0.3824
     22 N9         -2.1040   -1.3333   -0.7704 N.pl3     1 ATP        -0.4324
     23 C8         -3.0590   -1.5123    0.1363 C.ar      1 ATP         0.2662
     24 N7         -4.1655   -0.8354   -0.1554 N.pl3     1 ATP        -0.4772
     25 C5         -3.8852   -0.1874   -1.3253 C.ar      1 ATP        -0.1305
     26 C6         -4.7113    0.7160   -2.1458 C.ar      1 ATP         0.7186
     27 N6         -5.9213    1.0209   -1.8021 N.2       1 ATP        -0.8115
     28 N1         -4.0411    1.1673   -3.2764 N.pl3     1 ATP        -0.8400
     29 C2         -2.7403    0.7865   -3.5638 C.ar      1 ATP         0.6671
     30 N3         -1.9921   -0.0108   -2.8519 N.2       1 ATP        -0.5806
     31 C4         -2.6302   -0.4747   -1.7239 C.ar      1 ATP         0.2748
     32 HOG3       -2.7028   -5.8030    7.5664 H         1 ATP         0.4327
     33 HOB2       -5.9176   -4.7074    2.4213 H         1 ATP         0.4701
     34 H5'1       -1.7618   -3.4448    2.4164 H         1 ATP         0.0401
     35 H5'2       -0.1874   -3.8744    3.1341 H         1 ATP         0.0401
     36 H4'         0.8874   -3.6466    0.8805 H         1 ATP         0.1136
     37 H3'        -0.7376   -1.2333    1.9867 H         1 ATP         0.0693
     38 HO3'        1.1626   -1.9325    3.0084 H         1 ATP         0.4124
     39 H2'        -0.0384   -0.0310    0.0096 H         1 ATP         0.0854
     40 HO2'        2.1463   -0.7958    0.0370 H         1 ATP         0.4367
     41 H1'        -0.4769   -2.1002   -1.8093 H         1 ATP         0.1343
     42 H8         -2.9569   -2.1323    1.0098 H         1 ATP         0.3302
     43 HN62       -6.3169    1.6552   -2.5012 H         1 ATP         0.4160
     44 H2         -2.3612    1.2343   -4.4957 H         1 ATP         0.0756
     45 H45        -4.5223    1.7976   -3.9117 H         1 ATP         0.4587
     46 H46        -5.0218   -0.8132    0.3804 H         1 ATP         0.5254
@<TRIPOS>BOND
     1    1    2 2
     2    1    3 1
     3    1    4 1
     4    1    8 1
     5    4   32 1
     6    5    6 2
     7    5    7 1
     8    5    8 1
     9    5   12 1
    10    7   33 1
    11    9   10 2
    12    9   11 1
    13    9   12 1
    14    9   13 1
    15   13   14 1
    16   14   15 1
    17   14   34 1
    18   14   35 1
    19   15   16 1
    20   15   17 1
    21   15   36 1
    22   16   21 1
    23   17   18 1
    24   17   19 1
    25   17   37 1
    26   18   38 1
    27   19   20 1
    28   19   21 1
    29   19   39 1
    30   20   40 1
    31   21   22 1
    32   21   41 1
    33   22   23 ar
    34   22   31 ar
    35   23   24 ar
    36   23   42 1
    37   24   25 ar
    38   24   46 1
    39   25   26 ar
    40   25   31 ar
    41   26   27 2
    42   26   28 ar
    43   27   43 1
    44   28   29 ar
    45   28   45 1
    46   29   30 ar
    47   29   44 1
    48   30   31 ar
@<TRIPOS>SUBSTRUCTURE
     1 ATP         1 GROUP 0 A     ****
@<TRIPOS>MOLECULE
[[[3,4-dihydroxy-5-(6-imino-7,8-dihydro-1~{H}-purin-8-ylium-9-yl)tetrahydrofuran-2-yl]methoxy-oxido-phosphoryl]oxy-hydroxy-phosphoryl] hydrogen phosphate
   46    48     1     0     0
SMALL
USER_CHARGES

@<TRIPOS>ATOM
      1 PG          3.8307   -0.9038   -7.4139 P.3       1 ATP         1.5595
      2 O1G         3.9357   -2.3800   -7.7259 O.co2     1 ATP        -0.8438
      3 O2G         4.5984   -0.2968   -6.2608 O.co2     1 ATP        -0.8438
      4 O3G         4.1787   -0.0616   -8.7688 O.3       1 ATP        -0.7800
      5 PB          1.1583   -0.9348   -6.1668 P.3       1 ATP         1.9223
      6 O1B        -0.2125   -0.3596   -6.3681 O.2       1 ATP        -0.8953
      7 O2B         1.2302   -2.5498   -6.1639 O.3       1 ATP        -0.8165
      8 O3B         2.2556   -0.5045   -7.2730 O.3       1 ATP        -0.8247
      9 PA          2.3334    0.9635   -4.2388 P.3       1 ATP         1.6157
     10 O1A         1.0794    1.7628   -3.9589 O.co2     1 ATP        -0.8629
     11 O2A         3.4182    1.5161   -5.1375 O.co2     1 ATP        -0.8629
     12 O3A         1.9049   -0.5092   -4.7989 O.3       1 ATP        -0.8191
     13 O5'         3.0213    0.5153   -2.8245 O.3       1 ATP        -0.5644
     14 C5'         2.2816   -0.2918   -1.9206 C.3       1 ATP         0.2062
     15 C4'         2.7248    0.0226   -0.4980 C.3       1 ATP         0.0971
     16 O4'         2.4697    1.4219   -0.2462 O.3       1 ATP        -0.3662
     17 C3'         1.9404   -0.7419    0.5596 C.3       1 ATP         0.0734
     18 O3'         2.7418   -0.8086    1.7389 O.3       1 ATP        -0.5671
     19 C2'         0.7477    0.1630    0.7858 C.3       1 ATP         0.0745
     20 O2'         0.1373   -0.0577    2.0407 O.3       1 ATP        -0.5794
     21 C1'         1.3733    1.5427    0.6747 C.3       1 ATP         0.3824
     22 N9          0.4520    2.5240    0.1767 N.pl3     1 ATP        -0.4324
     23 C8          0.5691    3.2215   -0.9485 C.ar      1 ATP         0.2662
     24 N7         -0.4499    4.0551   -1.1342 N.pl3     1 ATP        -0.4772
     25 C5         -1.2618    3.8674   -0.0512 C.ar      1 ATP        -0.1305
     26 C6         -2.5420    4.5007    0.3120 C.ar      1 ATP         0.7186
     27 N6         -3.0874    5.3993   -0.4432 N.2       1 ATP        -0.8115
     28 N1         -3.0494    4.0205    1.5133 N.pl3     1 ATP        -0.8400
     29 C2         -2.3933    3.0527    2.2567 C.ar      1 ATP         0.6671
     30 N3         -1.2611    2.4796    1.9536 N.2       1 ATP        -0.5806
     31 C4         -0.7334    2.9358    0.7669 C.ar      1 ATP         0.2748
     32 HOG3        4.1535    0.9181   -8.7288 H         1 ATP         0.4327
     33 HOB2        0.7176   -3.0464   -5.4908 H         1 ATP         0.4701
     34 H5'1        1.2163   -0.0770   -2.0471 H         1 ATP         0.0401
     35 H5'2        2.4655   -1.3443   -2.1563 H         1 ATP         0.0401
     36 H4'         3.8044   -0.1397   -0.4040 H         1 ATP         0.1136
     37 H3'         1.6764   -1.7639    0.2728 H         1 ATP         0.0693
     38 HO3'        2.2232   -1.2979    2.3953 H         1 ATP         0.4124
     39 H2'        -0.0011    0.0027    0.0003 H         1 ATP         0.0854
     40 HO2'       -0.1563   -0.9855    2.0596 H         1 ATP         0.4367
     41 H1'         1.7826    1.9024    1.6451 H         1 ATP         0.1343
     42 H8          1.3912    3.1285   -1.6365 H         1 ATP         0.3302
     43 HN62       -3.9637    5.7084   -0.0142 H         1 ATP         0.4160
     44 H2         -2.9317    2.7866    3.1796 H         1 ATP         0.0756
     45 H45        -3.9307    4.3923    1.8559 H         1 ATP         0.4587
     46 H46        -0.5835    4.6857   -1.9122 H         1 ATP         0.5254
@<TRIPOS>BOND
     1    1    2 2
     2    1    3 1
     3    1    4 1
     4    1    8 1
     5    4   32 1
     6    5    6 2
     7    5    7 1
     8    5    8 1
     9    5   12 1
    10    7   33 1
    11    9   10 2
    12    9   11 1
    13    9   12 1
    14    9   13 1
    15   13   14 1
    16   14   15 1
    17   14   34 1
    18   14   35 1
    19   15   16 1
    20   15   17 1
    21   15   36 1
    22   16   21 1
    23   17   18 1
    24   17   19 1
    25   17   37 1
    26   18   38 1
    27   19   20 1
    28   19   21 1
    29   19   39 1
    30   20   40 1
    31   21   22 1
    32   21   41 1
    33   22   23 ar
    34   22   31 ar
    35   23   24 ar
    36   23   42 1
    37   24   25 ar
    38   24   46 1
    39   25   26 ar
    40   25   31 ar
    41   26   27 2
    42   26   28 ar
    43   27   43 1
    44   28   29 ar
    45   28   45 1
    46   29   30 ar
    47   29   44 1
    48   30   31 ar
@<TRIPOS>SUBSTRUCTURE
     1 ATP         1 GROUP 0 A     ****
@<TRIPOS>MOLECULE
[[[3,4-dihydroxy-5-(6-imino-7,8-dihydro-1~{H}-purin-8-ylium-9-yl)tetrahydrofuran-2-yl]methoxy-oxido-phosphoryl]oxy-hydroxy-phosphoryl] hydrogen phosphate
   46    48     1     0     0
SMALL
USER_CHARGES

@<TRIPOS>ATOM
      1 PG          1.9554   -4.6607   -5.9869 P.3       1 ATP         1.5595
      2 O1G         0.6918   -4.5776   -6.8139 O.co2     1 ATP        -0.8438
      3 O2G         1.8934   -4.7173   -4.4768 O.co2     1 ATP        -0.8438
      4 O3G         2.8395   -5.9269   -6.5172 O.3       1 ATP        -0.7800
      5 PB          2.8160   -1.8536   -6.2651 P.3       1 ATP         1.9223
      6 O1B         3.9600   -1.0489   -6.8074 O.2       1 ATP        -0.8953
      7 O2B         1.3757   -1.5265   -6.9223 O.3       1 ATP        -0.8165
      8 O3B         2.9589   -3.4549   -6.4331 O.3       1 ATP        -0.8247
      9 PA          3.5300   -2.0728   -3.4114 P.3       1 ATP         1.6157
     10 O1A         4.7115   -1.1274   -3.4299 O.co2     1 ATP        -0.8629
     11 O2A         3.7389   -3.5710   -3.3716 O.co2     1 ATP        -0.8629
     12 O3A         2.5573   -1.7245   -4.6758 O.3       1 ATP        -0.8191
     13 O5'         2.5245   -1.6648   -2.1878 O.3       1 ATP        -0.5644
     14 C5'         2.2816   -0.2918   -1.9206 C.3       1 ATP         0.2062
     15 C4'         2.7248    0.0226   -0.4980 C.3       1 ATP         0.0971
     16 O4'         2.4697    1.4219   -0.2462 O.3       1 ATP        -0.3662
     17 C3'         1.9404   -0.7419    0.5596 C.3       1 ATP         0.0734
     18 O3'         2.7418   -0.8086    1.7389 O.3       1 ATP        -0.5671
     19 C2'         0.7477    0.1630    0.7858 C.3       1 ATP         0.0745
     20 O2'         0.1373   -0.0577    2.0407 O.3       1 ATP        -0.5794
     21 C1'         1.3733    1.5427    0.6747 C.3       1 ATP         0.3824
     22 N9          0.4520    2.5240    0.1767 N.pl3     1 ATP        -0.4324
     23 C8          0.2216    2.8192   -1.0985 C.ar      1 ATP         0.2662
     24 N7         -0.6906    3.7763   -1.2384 N.pl3     1 ATP        -0.4772
     25 C5         -1.0575    4.1037    0.0366 C.ar      1 ATP        -0.1305
     26 C6         -2.0291    5.0943    0.5330 C.ar      1 ATP         0.7186
     27 N6         -2.7093    5.8371   -0.2800 N.2       1 ATP        -0.8115
     28 N1         -2.1051    5.1136    1.9204 N.pl3     1 ATP        -0.8400
     29 C2         -1.3354    4.2774    2.7129 C.ar      1 ATP         0.6671
     30 N3         -0.4707    3.3945    2.2944 N.2       1 ATP        -0.5806
     31 C4         -0.3734    3.3525    0.9220 C.ar      1 ATP         0.2748
     32 HOG3        3.6960   -6.1149   -6.0775 H         1 ATP         0.4327
     33 HOB2        1.0164   -0.6166   -6.8493 H         1 ATP         0.4701
     34 H5'1        2.8432    0.3119   -2.6398 H         1 ATP         0.0401
     35 H5'2        1.2128   -0.0927   -2.0428 H         1 ATP         0.0401
     36 H4'         3.8044   -0.1397   -0.4040 H         1 ATP         0.1136
     37 H3'         1.6764   -1.7639    0.2728 H         1 ATP         0.0693
     38 HO3'        2.2232   -1.2979    2.3953 H         1 ATP         0.4124
     39 H2'        -0.0011    0.0027    0.0003 H         1 ATP         0.0854
     40 HO2'       -0.1563   -0.9855    2.0596 H         1 ATP         0.4367
     41 H1'         1.7826    1.9024    1.6451 H         1 ATP         0.1343
     42 H8          0.7125    2.3429   -1.9292 H         1 ATP         0.3302
     43 HN62       -3.3217    6.4517    0.2629 H         1 ATP         0.4160
     44 H2         -1.5188    4.4223    3.7890 H         1 ATP         0.0756
     45 H45        -2.7470    5.7627    2.3665 H         1 ATP         0.4587
     46 H46        -1.0305    4.1680   -2.1054 H         1 ATP         0.5254
@<TRIPOS>BOND
     1    1    2 2
     2    1    3 1
     3    1    4 1
     4    1    8 1
     5    4   32 1
     6    5    6 2
     7    5    7 1
     8    5    8 1
     9    5   12 1
    10    7   33 1
    11    9   10 2
    12    9   11 1
    13    9   12 1
    14    9   13 1
    15   13   14 1
    16   14   15 1
    17   14   34 1
    18   14   35 1
    19   15   16 1
    20   15   17 1
    21   15   36 1
    22   16   21 1
    23   17   18 1
    24   17   19 1
    25   17   37 1
    26   18   38 1
    27   19   20 1
    28   19   21 1
    29   19   39 1
    30   20   40 1
    31   21   22 1
    32   21   41 1
    33   22   23 ar
    34   22   31 ar
    35   23   24 ar
    36   23   42 1
    37   24   25 ar
    38   24   46 1
    39   25   26 ar
    40   25   31 ar
    41   26   27 2
    42   26   28 ar
    43   27   43 1
    44   28   29 ar
    45   28   45 1
    46   29   30 ar
    47   29   44 1
    48   30   31 ar
@<TRIPOS>SUBSTRUCTURE
     1 ATP         1 GROUP 0 A     ****
@<TRIPOS>MOLECULE
[[[3,4-dihydroxy-5-(6-imino-7,8-dihydro-1~{H}-purin-8-ylium-9-yl)tetrahydrofuran-2-yl]methoxy-oxido-phosphoryl]oxy-hydroxy-phosphoryl] hydrogen phosphate
   46    48     1     0     0
SMALL
USER_CHARGES

@<TRIPOS>ATOM
      1 PG         -0.0076   -5.6229   -3.9153 P.3       1 ATP         1.5595
      2 O1G         0.4863   -6.9935   -3.5088 O.co2     1 ATP        -0.8438
      3 O2G         0.5537   -4.9248   -5.1339 O.co2     1 ATP        -0.8438
      4 O3G        -1.6338   -5.6776   -4.0523 O.3       1 ATP        -0.7800
      5 PB         -0.4192   -3.1020   -2.4410 P.3       1 ATP         1.9223
      6 O1B        -1.8978   -2.9052   -2.6000 O.2       1 ATP        -0.8953
      7 O2B         0.1786   -2.6722   -1.0017 O.3       1 ATP        -0.8165
      8 O3B         0.0985   -4.6213   -2.6325 O.3       1 ATP        -0.8247
      9 PA          2.1371   -2.2715   -3.6563 P.3       1 ATP         1.6157
     10 O1A         2.4976   -1.2664   -4.7285 O.co2     1 ATP        -0.8629
     11 O2A         2.6455   -3.6950   -3.7283 O.co2     1 ATP        -0.8629
     12 O3A         0.5123   -2.3150   -3.5004 O.3       1 ATP        -0.8191
     13 O5'         2.5245   -1.6648   -2.1878 O.3       1 ATP        -0.5644
     14 C5'         2.2816   -0.2918   -1.9206 C.3       1 ATP         0.2062
     15 C4'         2.7248    0.0226   -0.4980 C.3       1 ATP         0.0971
     16 O4'         2.4697    1.4219   -0.2462 O.3       1 ATP        -0.3662
     17 C3'         1.9404   -0.7419    0.5596 C.3       1 ATP         0.0734
     18 O3'         2.7418   -0.8086    1.7389 O.3       1 ATP        -0.5671
     19 C2'         0.7477    0.1630    0.7858 C.3       1 ATP         0.0745
     20 O2'         0.1373   -0.0577    2.0407 O.3       1 ATP        -0.5794
     21 C1'         1.3733    1.5427    0.6747 C.3       1 ATP         0.3824
     22 N9          0.4520    2.5240    0.1767 N.pl3     1 ATP        -0.4324
     23 C8          0.5691    3.2215   -0.9485 C.ar      1 ATP         0.2662
     24 N7         -0.4499    4.0551   -1.1342 N.pl3     1 ATP        -0.4772
     25 C5         -1.2618    3.8674   -0.0512 C.ar      1 ATP        -0.1305
     26 C6         -2.5420    4.5007    0.3120 C.ar      1 ATP         0.7186
     27 N6         -3.0874    5.3993   -0.4432 N.2       1 ATP        -0.8115
     28 N1         -3.0494    4.0205    1.5133 N.pl3     1 ATP        -0.8400
     29 C2         -2.3933    3.0527    2.2567 C.ar      1 ATP         0.6671
     30 N3         -1.2611    2.4796    1.9536 N.2       1 ATP        -0.5806
     31 C4         -0.7334    2.9358    0.7669 C.ar      1 ATP         0.2748
     32 HOG3       -2.1081   -4.8592   -4.3118 H         1 ATP         0.4327
     33 HOB2       -0.1579   -3.1187   -0.1957 H         1 ATP         0.4701
     34 H5'1        2.8432    0.3119   -2.6398 H         1 ATP         0.0401
     35 H5'2        1.2128   -0.0927   -2.0428 H         1 ATP         0.0401
     36 H4'         3.8044   -0.1397   -0.4040 H         1 ATP         0.1136
     37 H3'         1.6764   -1.7639    0.2728 H         1 ATP         0.0693
     38 HO3'        2.2232   -1.2979    2.3953 H         1 ATP         0.4124
     39 H2'        -0.0011    0.0027    0.0003 H         1 ATP         0.0854
     40 HO2'       -0.1563   -0.9855    2.0596 H         1 ATP         0.4367
     41 H1'         1.7826    1.9024    1.6451 H         1 ATP         0.1343
     42 H8          1.3912    3.1285   -1.6365 H         1 ATP         0.3302
     43 HN62       -3.9637    5.7084   -0.0142 H         1 ATP         0.4160
     44 H2         -2.9317    2.7866    3.1796 H         1 ATP         0.0756
     45 H45        -3.9307    4.3923    1.8559 H         1 ATP         0.4587
     46 H46        -0.5835    4.6857   -1.9122 H         1 ATP         0.5254
@<TRIPOS>BOND
     1    1    2 2
     2    1    3 1
     3    1    4 1
     4    1    8 1
     5    4   32 1
     6    5    6 2
     7    5    7 1
     8    5    8 1
     9    5   12 1
    10    7   33 1
    11    9   10 2
    12    9   11 1
    13    9   12 1
    14    9   13 1
    15   13   14 1
    16   14   15 1
    17   14   34 1
    18   14   35 1
    19   15   16 1
    20   15   17 1
    21   15   36 1
    22   16   21 1
    23   17   18 1
    24   17   19 1
    25   17   37 1
    26   18   38 1
    27   19   20 1
    28   19   21 1
    29   19   39 1
    30   20   40 1
    31   21   22 1
    32   21   41 1
    33   22   23 ar
    34   22   31 ar
    35   23   24 ar
    36   23   42 1
    37   24   25 ar
    38   24   46 1
    39   25   26 ar
    40   25   31 ar
    41   26   27 2
    42   26   28 ar
    43   27   43 1
    44   28   29 ar
    45   28   45 1
    46   29   30 ar
    47   29   44 1
    48   30   31 ar
@<TRIPOS>SUBSTRUCTURE
     1 ATP         1 GROUP 0 A     ****
@<TRIPOS>MOLECULE
[[[3,4-dihydroxy-5-(6-imino-7,8-dihydro-1~{H}-purin-8-ylium-9-yl)tetrahydrofuran-2-yl]methoxy-oxido-phosphoryl]oxy-hydroxy-phosphoryl] hydrogen phosphate
   46    48     1     0     0
SMALL
USER_CHARGES

@<TRIPOS>ATOM
      1 PG          1.8991   -6.2460   -2.2793 P.3       1 ATP         1.5595
      2 O1G         1.2901   -6.8548   -1.0358 O.co2     1 ATP        -0.8438
      3 O2G         3.1089   -5.3428   -2.1896 O.co2     1 ATP        -0.8438
      4 O3G         2.2254   -7.4461   -3.3374 O.3       1 ATP        -0.7800
      5 PB         -0.1384   -4.1692   -2.7623 P.3       1 ATP         1.9223
      6 O1B        -1.1405   -3.7595   -3.8007 O.2       1 ATP        -0.8953
      7 O2B        -0.7575   -4.5048   -1.3071 O.3       1 ATP        -0.8165
      8 O3B         0.7286   -5.4851   -3.1224 O.3       1 ATP        -0.8247
      9 PA          2.1631   -2.4497   -3.4314 P.3       1 ATP         1.6157
     10 O1A         1.4759   -1.5969   -4.4756 O.co2     1 ATP        -0.8629
     11 O2A         3.1219   -3.5474   -3.8381 O.co2     1 ATP        -0.8629
     12 O3A         1.0291   -3.0970   -2.4510 O.3       1 ATP        -0.8191
     13 O5'         2.9216   -1.4836   -2.3516 O.3       1 ATP        -0.5644
     14 C5'         2.2816   -0.2918   -1.9206 C.3       1 ATP         0.2062
     15 C4'         2.7248    0.0226   -0.4980 C.3       1 ATP         0.0971
     16 O4'         2.4697    1.4219   -0.2462 O.3       1 ATP        -0.3662
     17 C3'         1.9404   -0.7419    0.5596 C.3       1 ATP         0.0734
     18 O3'         2.7418   -0.8086    1.7389 O.3       1 ATP        -0.5671
     19 C2'         0.7477    0.1630    0.7858 C.3       1 ATP         0.0745
     20 O2'         0.1373   -0.0577    2.0407 O.3       1 ATP        -0.5794
     21 C1'         1.3733    1.5427    0.6747 C.3       1 ATP         0.3824
     22 N9          0.4520    2.5240    0.1767 N.pl3     1 ATP        -0.4324
     23 C8         -0.2004    2.4829   -0.9804 C.ar      1 ATP         0.2662
     24 N7         -0.9830    3.5431   -1.1568 N.pl3     1 ATP        -0.4772
     25 C5         -0.8095    4.3012   -0.0331 C.ar      1 ATP        -0.1305
     26 C6         -1.4065    5.5904    0.3585 C.ar      1 ATP         0.7186
     27 N6         -2.2501    6.2030   -0.4084 N.2       1 ATP        -0.8115
     28 N1         -0.9585    6.0272    1.5994 N.pl3     1 ATP        -0.8400
     29 C2         -0.0508    5.3009    2.3532 C.ar      1 ATP         0.6671
     30 N3          0.4890    4.1592    2.0257 N.2       1 ATP        -0.5806
     31 C4          0.0637    3.7006    0.7995 C.ar      1 ATP         0.2748
     32 HOG3        2.6273   -7.2107   -4.2007 H         1 ATP         0.4327
     33 HOB2       -1.4167   -5.2269   -1.2269 H         1 ATP         0.4701
     34 H5'1        2.5589    0.5217   -2.5976 H         1 ATP         0.0401
     35 H5'2        1.1982   -0.4388   -1.9617 H         1 ATP         0.0401
     36 H4'         3.8044   -0.1397   -0.4040 H         1 ATP         0.1136
     37 H3'         1.6764   -1.7639    0.2728 H         1 ATP         0.0693
     38 HO3'        3.5554   -1.2733    1.4914 H         1 ATP         0.4124
     39 H2'        -0.0011    0.0027    0.0003 H         1 ATP         0.0854
     40 HO2'       -0.1563   -0.9855    2.0596 H         1 ATP         0.4367
     41 H1'         1.7826    1.9024    1.6451 H         1 ATP         0.1343
     42 H8         -0.1116    1.6863   -1.6984 H         1 ATP         0.3302
     43 HN62       -2.5420    7.0730    0.0447 H         1 ATP         0.4160
     44 H2          0.1969    5.7893    3.3086 H         1 ATP         0.0756
     45 H45        -1.3097    6.9080    1.9642 H         1 ATP         0.4587
     46 H46        -1.5735    3.7351   -1.9538 H         1 ATP         0.5254
@<TRIPOS>BOND
     1    1    2 2
     2    1    3 1
     3    1    4 1
     4    1    8 1
     5    4   32 1
     6    5    6 2
     7    5    7 1
     8    5    8 1
     9    5   12 1
    10    7   33 1
    11    9   10 2
    12    9   11 1
    13    9   12 1
    14    9   13 1
    15   13   14 1
    16   14   15 1
    17   14   34 1
    18   14   35 1
    19   15   16 1
    20   15   17 1
    21   15   36 1
    22   16   21 1
    23   17   18 1
    24   17   19 1
    25   17   37 1
    26   18   38 1
    27   19   20 1
    28   19   21 1
    29   19   39 1
    30   20   40 1
    31   21   22 1
    32   21   41 1
    33   22   23 ar
    34   22   31 ar
    35   23   24 ar
    36   23   42 1
    37   24   25 ar
    38   24   46 1
    39   25   26 ar
    40   25   31 ar
    41   26   27 2
    42   26   28 ar
    43   27   43 1
    44   28   29 ar
    45   28   45 1
    46   29   30 ar
    47   29   44 1
    48   30   31 ar
@<TRIPOS>SUBSTRUCTURE
     1 ATP         1 GROUP 0 A     ****
@<TRIPOS>MOLECULE
[[[3,4-dihydroxy-5-(6-imino-7,8-dihydro-1~{H}-purin-8-ylium-9-yl)tetrahydrofuran-2-yl]methoxy-oxido-phosphoryl]oxy-hydroxy-phosphoryl] hydrogen phosphate
   46    48     1     0     0
SMALL
USER_CHARGES

@<TRIPOS>ATOM
      1 PG          4.8053   -3.2260   -6.4364 P.3       1 ATP         1.5595
      2 O1G         4.0866   -4.2174   -7.3243 O.co2     1 ATP        -0.8438
      3 O2G         5.6320   -3.6940   -5.2595 O.co2     1 ATP        -0.8438
      4 O3G         5.7365   -2.2689   -7.3761 O.3       1 ATP        -0.7800
      5 PB          2.4639   -2.2413   -4.9377 P.3       1 ATP         1.9223
      6 O1B         1.3985   -3.1925   -5.3964 O.2       1 ATP        -0.8953
      7 O2B         3.1251   -2.5921   -3.5047 O.3       1 ATP        -0.8165
      8 O3B         3.7373   -2.1049   -5.9240 O.3       1 ATP        -0.8247
      9 PA          2.8619    0.6169   -4.3269 P.3       1 ATP         1.6157
     10 O1A         1.9202    1.7974   -4.2284 O.co2     1 ATP        -0.8629
     11 O2A         4.1141    0.6950   -5.1728 O.co2     1 ATP        -0.8629
     12 O3A         2.0115   -0.6976   -4.7905 O.3       1 ATP        -0.8191
     13 O5'         3.2903    0.1346   -2.8241 O.3       1 ATP        -0.5644
     14 C5'         2.2816   -0.2918   -1.9206 C.3       1 ATP         0.2062
     15 C4'         2.7248    0.0226   -0.4980 C.3       1 ATP         0.0971
     16 O4'         2.4697    1.4219   -0.2462 O.3       1 ATP        -0.3662
     17 C3'         1.9404   -0.7419    0.5596 C.3       1 ATP         0.0734
     18 O3'         2.7418   -0.8086    1.7389 O.3       1 ATP        -0.5671
     19 C2'         0.7477    0.1630    0.7858 C.3       1 ATP         0.0745
     20 O2'         0.1373   -0.0577    2.0407 O.3       1 ATP        -0.5794
     21 C1'         1.3733    1.5427    0.6747 C.3       1 ATP         0.3824
     22 N9          0.4520    2.5240    0.1767 N.pl3     1 ATP        -0.4324
     23 C8          0.5691    3.2215   -0.9485 C.ar      1 ATP         0.2662
     24 N7         -0.4499    4.0551   -1.1342 N.pl3     1 ATP        -0.4772
     25 C5         -1.2618    3.8674   -0.0512 C.ar      1 ATP        -0.1305
     26 C6         -2.5420    4.5007    0.3120 C.ar      1 ATP         0.7186
     27 N6         -3.0874    5.3993   -0.4432 N.2       1 ATP        -0.8115
     28 N1         -3.0494    4.0205    1.5133 N.pl3     1 ATP        -0.8400
     29 C2         -2.3933    3.0527    2.2567 C.ar      1 ATP         0.6671
     30 N3         -1.2611    2.4796    1.9536 N.2       1 ATP        -0.5806
     31 C4         -0.7334    2.9358    0.7669 C.ar      1 ATP         0.2748
     32 HOG3        6.2703   -1.5683   -6.9445 H         1 ATP         0.4327
     33 HOB2        3.5806   -3.4533   -3.3904 H         1 ATP         0.4701
     34 H5'1        1.3514    0.2330   -2.1577 H         1 ATP         0.0401
     35 H5'2        2.1280   -1.3678   -2.0460 H         1 ATP         0.0401
     36 H4'         3.8044   -0.1397   -0.4040 H         1 ATP         0.1136
     37 H3'         1.6764   -1.7639    0.2728 H         1 ATP         0.0693
     38 HO3'        2.2232   -1.2979    2.3953 H         1 ATP         0.4124
     39 H2'        -0.0011    0.0027    0.0003 H         1 ATP         0.0854
     40 HO2'       -0.1563   -0.9855    2.0596 H         1 ATP         0.4367
     41 H1'         1.7826    1.9024    1.6451 H         1 ATP         0.1343
     42 H8          1.3912    3.1285   -1.6365 H         1 ATP         0.3302
     43 HN62       -3.9637    5.7084   -0.0142 H         1 ATP         0.4160
     44 H2         -2.9317    2.7866    3.1796 H         1 ATP         0.0756
     45 H45        -3.9307    4.3923    1.8559 H         1 ATP         0.4587
     46 H46        -0.5835    4.6857   -1.9122 H         1 ATP         0.5254
@<TRIPOS>BOND
     1    1    2 2
     2    1    3 1
     3    1    4 1
     4    1    8 1
     5    4   32 1
     6    5    6 2
     7    5    7 1
     8    5    8 1
     9    5   12 1
    10    7   33 1
    11    9   10 2
    12    9   11 1
    13    9   12 1
    14    9   13 1
    15   13   14 1
    16   14   15 1
    17   14   34 1
    18   14   35 1
    19   15   16 1
    20   15   17 1
    21   15   36 1
    22   16   21 1
    23   17   18 1
    24   17   19 1
    25   17   37 1
    26   18   38 1
    27   19   20 1
    28   19   21 1
    29   19   39 1
    30   20   40 1
    31   21   22 1
    32   21   41 1
    33   22   23 ar
    34   22   31 ar
    35   23   24 ar
    36   23   42 1
    37   24   25 ar
    38   24   46 1
    39   25   26 ar
    40   25   31 ar
    41   26   27 2
    42   26   28 ar
    43   27   43 1
    44   28   29 ar
    45   28   45 1
    46   29   30 ar
    47   29   44 1
    48   30   31 ar
@<TRIPOS>SUBSTRUCTURE
     1 ATP         1 GROUP 0 A     ****
@<TRIPOS>MOLECULE
[[[3,4-dihydroxy-5-(6-imino-7,8-dihydro-1~{H}-purin-8-ylium-9-yl)tetrahydrofuran-2-yl]methoxy-oxido-phosphoryl]oxy-hydroxy-phosphoryl] hydrogen phosphate
   46    48     1     0     0
SMALL
USER_CHARGES

@<TRIPOS>ATOM
      1 PG          2.2812   -3.8484   -4.8596 P.3       1 ATP         1.5595
      2 O1G         0.9419   -4.5296   -4.6867 O.co2     1 ATP        -0.8438
      3 O2G         3.0110   -3.2574   -3.6741 O.co2     1 ATP        -0.8438
      4 O3G         3.2898   -4.8761   -5.6295 O.3       1 ATP        -0.7800
      5 PB          1.3127   -1.3309   -6.0520 P.3       1 ATP         1.9223
      6 O1B         1.4384   -0.5331   -7.3162 O.2       1 ATP        -0.8953
      7 O2B        -0.1921   -1.7865   -5.6759 O.3       1 ATP        -0.8165
      8 O3B         2.1500   -2.7132   -6.0233 O.3       1 ATP        -0.8247
      9 PA          3.3342   -0.0516   -4.3262 P.3       1 ATP         1.6157
     10 O1A         3.6725    1.1050   -5.2416 O.co2     1 ATP        -0.8629
     11 O2A         4.2676   -1.2358   -4.1991 O.co2     1 ATP        -0.8629
     12 O3A         1.8482   -0.6092   -4.7096 O.3       1 ATP        -0.8191
     13 O5'         3.0213    0.5153   -2.8245 O.3       1 ATP        -0.5644
     14 C5'         2.2816   -0.2918   -1.9206 C.3       1 ATP         0.2062
     15 C4'         2.7248    0.0226   -0.4980 C.3       1 ATP         0.0971
     16 O4'         2.4697    1.4219   -0.2462 O.3       1 ATP        -0.3662
     17 C3'         1.9404   -0.7419    0.5596 C.3       1 ATP         0.0734
     18 O3'         2.7418   -0.8086    1.7389 O.3       1 ATP        -0.5671
     19 C2'         0.7477    0.1630    0.7858 C.3       1 ATP         0.0745
     20 O2'         0.1373   -0.0577    2.0407 O.3       1 ATP        -0.5794
     21 C1'         1.3733    1.5427    0.6747 C.3       1 ATP         0.3824
     22 N9          0.4520    2.5240    0.1767 N.pl3     1 ATP        -0.4324
     23 C8         -0.2004    2.4829   -0.9804 C.ar      1 ATP         0.2662
     24 N7         -0.9830    3.5431   -1.1568 N.pl3     1 ATP        -0.4772
     25 C5         -0.8095    4.3012   -0.0331 C.ar      1 ATP        -0.1305
     26 C6         -1.4065    5.5904    0.3585 C.ar      1 ATP         0.7186
     27 N6         -2.2501    6.2030   -0.4084 N.2       1 ATP        -0.8115
     28 N1         -0.9585    6.0272    1.5994 N.pl3     1 ATP        -0.8400
     29 C2         -0.0508    5.3009    2.3532 C.ar      1 ATP         0.6671
     30 N3          0.4890    4.1592    2.0257 N.2       1 ATP        -0.5806
     31 C4          0.0637    3.7006    0.7995 C.ar      1 ATP         0.2748
     32 HOG3        4.2053   -4.5784   -5.8174 H         1 ATP         0.4327
     33 HOB2       -0.6877   -2.3528   -6.3051 H         1 ATP         0.4701
     34 H5'1        1.2163   -0.0770   -2.0471 H         1 ATP         0.0401
     35 H5'2        2.4655   -1.3443   -2.1563 H         1 ATP         0.0401
     36 H4'         3.8044   -0.1397   -0.4040 H         1 ATP         0.1136
     37 H3'         1.6764   -1.7639    0.2728 H         1 ATP         0.0693
     38 HO3'        2.2232   -1.2979    2.3953 H         1 ATP         0.4124
     39 H2'        -0.0011    0.0027    0.0003 H         1 ATP         0.0854
     40 HO2'       -0.1563   -0.9855    2.0596 H         1 ATP         0.4367
     41 H1'         1.7826    1.9024    1.6451 H         1 ATP         0.1343
     42 H8         -0.1116    1.6863   -1.6984 H         1 ATP         0.3302
     43 HN62       -2.5420    7.0730    0.0447 H         1 ATP         0.4160
     44 H2          0.1969    5.7893    3.3086 H         1 ATP         0.0756
     45 H45        -1.3097    6.9080    1.9642 H         1 ATP         0.4587
     46 H46        -1.5735    3.7351   -1.9538 H         1 ATP         0.5254
@<TRIPOS>BOND
     1    1    2 2
     2    1    3 1
     3    1    4 1
     4    1    8 1
     5    4   32 1
     6    5    6 2
     7    5    7 1
     8    5    8 1
     9    5   12 1
    10    7   33 1
    11    9   10 2
    12    9   11 1
    13    9   12 1
    14    9   13 1
    15   13   14 1
    16   14   15 1
    17   14   34 1
    18   14   35 1
    19   15   16 1
    20   15   17 1
    21   15   36 1
    22   16   21 1
    23   17   18 1
    24   17   19 1
    25   17   37 1
    26   18   38 1
    27   19   20 1
    28   19   21 1
    29   19   39 1
    30   20   40 1
    31   21   22 1
    32   21   41 1
    33   22   23 ar
    34   22   31 ar
    35   23   24 ar
    36   23   42 1
    37   24   25 ar
    38   24   46 1
    39   25   26 ar
    40   25   31 ar
    41   26   27 2
    42   26   28 ar
    43   27   43 1
    44   28   29 ar
    45   28   45 1
    46   29   30 ar
    47   29   44 1
    48   30   31 ar
@<TRIPOS>SUBSTRUCTURE
     1 ATP         1 GROUP 0 A     ****
@<TRIPOS>MOLECULE
[[[3,4-dihydroxy-5-(6-imino-7,8-dihydro-1~{H}-purin-8-ylium-9-yl)tetrahydrofuran-2-yl]methoxy-oxido-phosphoryl]oxy-hydroxy-phosphoryl] hydrogen phosphate
   46    48     1     0     0
SMALL
USER_CHARGES

@<TRIPOS>ATOM
      1 PG          5.9381   -1.7803   -6.6169 P.3       1 ATP         1.5595
      2 O1G         5.8823   -3.1747   -7.2001 O.co2     1 ATP        -0.8438
      3 O2G         7.0943   -0.8551   -6.9246 O.co2     1 ATP        -0.8438
      4 O3G         4.5459   -1.0094   -6.9826 O.3       1 ATP        -0.7800
      5 PB          4.5975   -2.5883   -4.1173 P.3       1 ATP         1.9223
      6 O1B         4.4570   -4.0676   -4.3227 O.2       1 ATP        -0.8953
      7 O2B         4.9399   -2.1360   -2.6035 O.3       1 ATP        -0.8165
      8 O3B         5.7496   -1.8762   -4.9997 O.3       1 ATP        -0.8247
      9 PA          3.0673   -0.0858   -4.4292 P.3       1 ATP         1.6157
     10 O1A         1.6266    0.2116   -4.7838 O.co2     1 ATP        -0.8629
     11 O2A         4.2011    0.5980   -5.1618 O.co2     1 ATP        -0.8629
     12 O3A         3.3063   -1.6991   -4.5069 O.3       1 ATP        -0.8191
     13 O5'         3.2903    0.1346   -2.8241 O.3       1 ATP        -0.5644
     14 C5'         2.2816   -0.2918   -1.9206 C.3       1 ATP         0.2062
     15 C4'         2.7248    0.0226   -0.4980 C.3       1 ATP         0.0971
     16 O4'         2.4697    1.4219   -0.2462 O.3       1 ATP        -0.3662
     17 C3'         1.9404   -0.7419    0.5596 C.3       1 ATP         0.0734
     18 O3'         2.7418   -0.8086    1.7389 O.3       1 ATP        -0.5671
     19 C2'         0.7477    0.1630    0.7858 C.3       1 ATP         0.0745
     20 O2'         0.1373   -0.0577    2.0407 O.3       1 ATP        -0.5794
     21 C1'         1.3733    1.5427    0.6747 C.3       1 ATP         0.3824
     22 N9          0.4520    2.5240    0.1767 N.pl3     1 ATP        -0.4324
     23 C8          0.2216    2.8192   -1.0985 C.ar      1 ATP         0.2662
     24 N7         -0.6906    3.7763   -1.2384 N.pl3     1 ATP        -0.4772
     25 C5         -1.0575    4.1037    0.0366 C.ar      1 ATP        -0.1305
     26 C6         -2.0291    5.0943    0.5330 C.ar      1 ATP         0.7186
     27 N6         -2.7093    5.8371   -0.2800 N.2       1 ATP        -0.8115
     28 N1         -2.1051    5.1136    1.9204 N.pl3     1 ATP        -0.8400
     29 C2         -1.3354    4.2774    2.7129 C.ar      1 ATP         0.6671
     30 N3         -0.4707    3.3945    2.2944 N.2       1 ATP        -0.5806
     31 C4         -0.3734    3.3525    0.9220 C.ar      1 ATP         0.2748
     32 HOG3        3.7020   -1.3929   -6.6618 H         1 ATP         0.4327
     33 HOB2        4.3119   -2.3663   -1.8859 H         1 ATP         0.4701
     34 H5'1        1.3514    0.2330   -2.1577 H         1 ATP         0.0401
     35 H5'2        2.1280   -1.3678   -2.0460 H         1 ATP         0.0401
     36 H4'         3.8044   -0.1397   -0.4040 H         1 ATP         0.1136
     37 H3'         1.6764   -1.7639    0.2728 H         1 ATP         0.0693
     38 HO3'        3.5554   -1.2733    1.4914 H         1 ATP         0.4124
     39 H2'        -0.0011    0.0027    0.0003 H         1 ATP         0.0854
     40 HO2'       -0.1563   -0.9855    2.0596 H         1 ATP         0.4367
     41 H1'         1.7826    1.9024    1.6451 H         1 ATP         0.1343
     42 H8          0.7125    2.3429   -1.9292 H         1 ATP         0.3302
     43 HN62       -3.3217    6.4517    0.2629 H         1 ATP         0.4160
     44 H2         -1.5188    4.4223    3.7890 H         1 ATP         0.0756
     45 H45        -2.7470    5.7627    2.3665 H         1 ATP         0.4587
     46 H46        -1.0305    4.1680   -2.1054 H         1 ATP         0.5254
@<TRIPOS>BOND
     1    1    2 2
     2    1    3 1
     3    1    4 1
     4    1    8 1
     5    4   32 1
     6    5    6 2
     7    5    7 1
     8    5    8 1
     9    5   12 1
    10    7   33 1
    11    9   10 2
    12    9   11 1
    13    9   12 1
    14    9   13 1
    15   13   14 1
    16   14   15 1
    17   14   34 1
    18   14   35 1
    19   15   16 1
    20   15   17 1
    21   15   36 1
    22   16   21 1
    23   17   18 1
    24   17   19 1
    25   17   37 1
    26   18   38 1
    27   19   20 1
    28   19   21 1
    29   19   39 1
    30   20   40 1
    31   21   22 1
    32   21   41 1
    33   22   23 ar
    34   22   31 ar
    35   23   24 ar
    36   23   42 1
    37   24   25 ar
    38   24   46 1
    39   25   26 ar
    40   25   31 ar
    41   26   27 2
    42   26   28 ar
    43   27   43 1
    44   28   29 ar
    45   28   45 1
    46   29   30 ar
    47   29   44 1
    48   30   31 ar
@<TRIPOS>SUBSTRUCTURE
     1 ATP         1 GROUP 0 A     ****
@<TRIPOS>MOLECULE
[[[3,4-dihydroxy-5-(6-imino-7,8-dihydro-1~{H}-purin-8-ylium-9-yl)tetrahydrofuran-2-yl]methoxy-oxido-phosphoryl]oxy-hydroxy-phosphoryl] hydrogen phosphate
   46    48     1     0     0
SMALL
USER_CHARGES

@<TRIPOS>ATOM
      1 PG          6.4232    0.4941   -2.4243 P.3       1 ATP         1.5595
      2 O1G         6.7905    1.8874   -2.8841 O.co2     1 ATP        -0.8438
      3 O2G         7.4341   -0.6300   -2.4674 O.co2     1 ATP        -0.8438
      4 O3G         5.8192    0.5903   -0.9103 O.3       1 ATP        -0.7800
      5 PB          4.8132   -0.3013   -4.7638 P.3       1 ATP         1.9223
      6 O1B         5.0753    0.8381   -5.7036 O.2       1 ATP        -0.8953
      7 O2B         5.6986   -1.6274   -5.0308 O.3       1 ATP        -0.8165
      8 O3B         5.0689    0.0216   -3.2007 O.3       1 ATP        -0.8247
      9 PA          2.6194   -2.0514   -3.8552 P.3       1 ATP         1.6157
     10 O1A         3.4097   -3.3216   -4.0830 O.co2     1 ATP        -0.8629
     11 O2A         1.1233   -2.0206   -4.0799 O.co2     1 ATP        -0.8629
     12 O3A         3.2936   -0.8480   -4.7290 O.3       1 ATP        -0.8191
     13 O5'         2.9216   -1.4836   -2.3516 O.3       1 ATP        -0.5644
     14 C5'         2.2816   -0.2918   -1.9206 C.3       1 ATP         0.2062
     15 C4'         2.7248    0.0226   -0.4980 C.3       1 ATP         0.0971
     16 O4'         2.4697    1.4219   -0.2462 O.3       1 ATP        -0.3662
     17 C3'         1.9404   -0.7419    0.5596 C.3       1 ATP         0.0734
     18 O3'         2.7418   -0.8086    1.7389 O.3       1 ATP        -0.5671
     19 C2'         0.7477    0.1630    0.7858 C.3       1 ATP         0.0745
     20 O2'         0.1373   -0.0577    2.0407 O.3       1 ATP        -0.5794
     21 C1'         1.3733    1.5427    0.6747 C.3       1 ATP         0.3824
     22 N9          0.4520    2.5240    0.1767 N.pl3     1 ATP        -0.4324
     23 C8          0.2216    2.8192   -1.0985 C.ar      1 ATP         0.2662
     24 N7         -0.6906    3.7763   -1.2384 N.pl3     1 ATP        -0.4772
     25 C5         -1.0575    4.1037    0.0366 C.ar      1 ATP        -0.1305
     26 C6         -2.0291    5.0943    0.5330 C.ar      1 ATP         0.7186
     27 N6         -2.7093    5.8371   -0.2800 N.2       1 ATP        -0.8115
     28 N1         -2.1051    5.1136    1.9204 N.pl3     1 ATP        -0.8400
     29 C2         -1.3354    4.2774    2.7129 C.ar      1 ATP         0.6671
     30 N3         -0.4707    3.3945    2.2944 N.2       1 ATP        -0.5806
     31 C4         -0.3734    3.3525    0.9220 C.ar      1 ATP         0.2748
     32 HOG3        5.5324   -0.2373   -0.4688 H         1 ATP         0.4327
     33 HOB2        6.6761   -1.5635   -4.9802 H         1 ATP         0.4701
     34 H5'1        2.5589    0.5217   -2.5976 H         1 ATP         0.0401
     35 H5'2        1.1982   -0.4388   -1.9617 H         1 ATP         0.0401
     36 H4'         3.8044   -0.1397   -0.4040 H         1 ATP         0.1136
     37 H3'         1.6764   -1.7639    0.2728 H         1 ATP         0.0693
     38 HO3'        3.5554   -1.2733    1.4914 H         1 ATP         0.4124
     39 H2'        -0.0011    0.0027    0.0003 H         1 ATP         0.0854
     40 HO2'       -0.1563   -0.9855    2.0596 H         1 ATP         0.4367
     41 H1'         1.7826    1.9024    1.6451 H         1 ATP         0.1343
     42 H8          0.7125    2.3429   -1.9292 H         1 ATP         0.3302
     43 HN62       -3.3217    6.4517    0.2629 H         1 ATP         0.4160
     44 H2         -1.5188    4.4223    3.7890 H         1 ATP         0.0756
     45 H45        -2.7470    5.7627    2.3665 H         1 ATP         0.4587
     46 H46        -1.0305    4.1680   -2.1054 H         1 ATP         0.5254
@<TRIPOS>BOND
     1    1    2 2
     2    1    3 1
     3    1    4 1
     4    1    8 1
     5    4   32 1
     6    5    6 2
     7    5    7 1
     8    5    8 1
     9    5   12 1
    10    7   33 1
    11    9   10 2
    12    9   11 1
    13    9   12 1
    14    9   13 1
    15   13   14 1
    16   14   15 1
    17   14   34 1
    18   14   35 1
    19   15   16 1
    20   15   17 1
    21   15   36 1
    22   16   21 1
    23   17   18 1
    24   17   19 1
    25   17   37 1
    26   18   38 1
    27   19   20 1
    28   19   21 1
    29   19   39 1
    30   20   40 1
    31   21   22 1
    32   21   41 1
    33   22   23 ar
    34   22   31 ar
    35   23   24 ar
    36   23   42 1
    37   24   25 ar
    38   24   46 1
    39   25   26 ar
    40   25   31 ar
    41   26   27 2
    42   26   28 ar
    43   27   43 1
    44   28   29 ar
    45   28   45 1
    46   29   30 ar
    47   29   44 1
    48   30   31 ar
@<TRIPOS>SUBSTRUCTURE
     1 ATP         1 GROUP 0 A     ****
@<TRIPOS>MOLECULE
[[[3,4-dihydroxy-5-(6-imino-7,8-dihydro-1~{H}-purin-8-ylium-9-yl)tetrahydrofuran-2-yl]methoxy-oxido-phosphoryl]oxy-hydroxy-phosphoryl] hydrogen phosphate
   46    48     1     0     0
SMALL
USER_CHARGES

@<TRIPOS>ATOM
      1 PG          1.6292   -5.8795   -4.3685 P.3       1 ATP         1.5595
      2 O1G         2.1666   -4.9887   -5.4664 O.co2     1 ATP        -0.8438
      3 O2G         0.3481   -6.6606   -4.5589 O.co2     1 ATP        -0.8438
      4 O3G         2.8073   -6.9174   -3.9200 O.3       1 ATP        -0.7800
      5 PB          0.5723   -3.7668   -2.6030 P.3       1 ATP         1.9223
      6 O1B        -0.9007   -4.0451   -2.6587 O.2       1 ATP        -0.8953
      7 O2B         1.1265   -3.2951   -1.1594 O.3       1 ATP        -0.8165
      8 O3B         1.5246   -5.0142   -2.9899 O.3       1 ATP        -0.8247
      9 PA          2.6194   -2.0514   -3.8552 P.3       1 ATP         1.6157
     10 O1A         2.5492   -0.8935   -4.8270 O.co2     1 ATP        -0.8629
     11 O2A         3.5431   -3.2220   -4.1125 O.co2     1 ATP        -0.8629
     12 O3A         1.1116   -2.6310   -3.6173 O.3       1 ATP        -0.8191
     13 O5'         2.9216   -1.4836   -2.3516 O.3       1 ATP        -0.5644
     14 C5'         2.2816   -0.2918   -1.9206 C.3       1 ATP         0.2062
     15 C4'         2.7248    0.0226   -0.4980 C.3       1 ATP         0.0971
     16 O4'         2.4697    1.4219   -0.2462 O.3       1 ATP        -0.3662
     17 C3'         1.9404   -0.7419    0.5596 C.3       1 ATP         0.0734
     18 O3'         2.7418   -0.8086    1.7389 O.3       1 ATP        -0.5671
     19 C2'         0.7477    0.1630    0.7858 C.3       1 ATP         0.0745
     20 O2'         0.1373   -0.0577    2.0407 O.3       1 ATP        -0.5794
     21 C1'         1.3733    1.5427    0.6747 C.3       1 ATP         0.3824
     22 N9          0.4520    2.5240    0.1767 N.pl3     1 ATP        -0.4324
     23 C8         -0.2004    2.4829   -0.9804 C.ar      1 ATP         0.2662
     24 N7         -0.9830    3.5431   -1.1568 N.pl3     1 ATP        -0.4772
     25 C5         -0.8095    4.3012   -0.0331 C.ar      1 ATP        -0.1305
     26 C6         -1.4065    5.5904    0.3585 C.ar      1 ATP         0.7186
     27 N6         -2.2501    6.2030   -0.4084 N.2       1 ATP        -0.8115
     28 N1         -0.9585    6.0272    1.5994 N.pl3     1 ATP        -0.8400
     29 C2         -0.0508    5.3009    2.3532 C.ar      1 ATP         0.6671
     30 N3          0.4890    4.1592    2.0257 N.2       1 ATP        -0.5806
     31 C4          0.0637    3.7006    0.7995 C.ar      1 ATP         0.2748
     32 HOG3        2.6125   -7.5663   -3.2108 H         1 ATP         0.4327
     33 HOB2        1.0198   -3.8953   -0.3909 H         1 ATP         0.4701
     34 H5'1        2.5589    0.5217   -2.5976 H         1 ATP         0.0401
     35 H5'2        1.1982   -0.4388   -1.9617 H         1 ATP         0.0401
     36 H4'         3.8044   -0.1397   -0.4040 H         1 ATP         0.1136
     37 H3'         1.6764   -1.7639    0.2728 H         1 ATP         0.0693
     38 HO3'        2.2232   -1.2979    2.3953 H         1 ATP         0.4124
     39 H2'        -0.0011    0.0027    0.0003 H         1 ATP         0.0854
     40 HO2'       -0.1563   -0.9855    2.0596 H         1 ATP         0.4367
     41 H1'         1.7826    1.9024    1.6451 H         1 ATP         0.1343
     42 H8         -0.1116    1.6863   -1.6984 H         1 ATP         0.3302
     43 HN62       -2.5420    7.0730    0.0447 H         1 ATP         0.4160
     44 H2          0.1969    5.7893    3.3086 H         1 ATP         0.0756
     45 H45        -1.3097    6.9080    1.9642 H         1 ATP         0.4587
     46 H46        -1.5735    3.7351   -1.9538 H         1 ATP         0.5254
@<TRIPOS>BOND
     1    1    2 2
     2    1    3 1
     3    1    4 1
     4    1    8 1
     5    4   32 1
     6    5    6 2
     7    5    7 1
     8    5    8 1
     9    5   12 1
    10    7   33 1
    11    9   10 2
    12    9   11 1
    13    9   12 1
    14    9   13 1
    15   13   14 1
    16   14   15 1
    17   14   34 1
    18   14   35 1
    19   15   16 1
    20   15   17 1
    21   15   36 1
    22   16   21 1
    23   17   18 1
    24   17   19 1
    25   17   37 1
    26   18   38 1
    27   19   20 1
    28   19   21 1
    29   19   39 1
    30   20   40 1
    31   21   22 1
    32   21   41 1
    33   22   23 ar
    34   22   31 ar
    35   23   24 ar
    36   23   42 1
    37   24   25 ar
    38   24   46 1
    39   25   26 ar
    40   25   31 ar
    41   26   27 2
    42   26   28 ar
    43   27   43 1
    44   28   29 ar
    45   28   45 1
    46   29   30 ar
    47   29   44 1
    48   30   31 ar
@<TRIPOS>SUBSTRUCTURE
     1 ATP         1 GROUP 0 A     ****
@<TRIPOS>MOLECULE
[[[3,4-dihydroxy-5-(6-imino-7,8-dihydro-1~{H}-purin-8-ylium-9-yl)tetrahydrofuran-2-yl]methoxy-oxido-phosphoryl]oxy-hydroxy-phosphoryl] hydrogen phosphate
   46    48     1     0     0
SMALL
USER_CHARGES

@<TRIPOS>ATOM
      1 PG          3.8253   -1.6250   -7.4803 P.3       1 ATP         1.5595
      2 O1G         5.2356   -1.8437   -7.9813 O.co2     1 ATP        -0.8438
      3 O2G         3.1512   -0.2784   -7.6200 O.co2     1 ATP        -0.8438
      4 O3G         2.8576   -2.7605   -8.1441 O.3       1 ATP        -0.7800
      5 PB          2.4639   -2.2413   -4.9377 P.3       1 ATP         1.9223
      6 O1B         1.3985   -3.1925   -5.3964 O.2       1 ATP        -0.8953
      7 O2B         3.1251   -2.5921   -3.5047 O.3       1 ATP        -0.8165
      8 O3B         3.7373   -2.1049   -5.9240 O.3       1 ATP        -0.8247
      9 PA          2.8619    0.6169   -4.3269 P.3       1 ATP         1.6157
     10 O1A         1.9202    1.7974   -4.2284 O.co2     1 ATP        -0.8629
     11 O2A         4.1141    0.6950   -5.1728 O.co2     1 ATP        -0.8629
     12 O3A         2.0115   -0.6976   -4.7905 O.3       1 ATP        -0.8191
     13 O5'         3.2903    0.1346   -2.8241 O.3       1 ATP        -0.5644
     14 C5'         2.2816   -0.2918   -1.9206 C.3       1 ATP         0.2062
     15 C4'         2.7248    0.0226   -0.4980 C.3       1 ATP         0.0971
     16 O4'         2.4697    1.4219   -0.2462 O.3       1 ATP        -0.3662
     17 C3'         1.9404   -0.7419    0.5596 C.3       1 ATP         0.0734
     18 O3'         2.7418   -0.8086    1.7389 O.3       1 ATP        -0.5671
     19 C2'         0.7477    0.1630    0.7858 C.3       1 ATP         0.0745
     20 O2'         0.1373   -0.0577    2.0407 O.3       1 ATP        -0.5794
     21 C1'         1.3733    1.5427    0.6747 C.3       1 ATP         0.3824
     22 N9          0.4520    2.5240    0.1767 N.pl3     1 ATP        -0.4324
     23 C8          0.5691    3.2215   -0.9485 C.ar      1 ATP         0.2662
     24 N7         -0.4499    4.0551   -1.1342 N.pl3     1 ATP        -0.4772
     25 C5         -1.2618    3.8674   -0.0512 C.ar      1 ATP        -0.1305
     26 C6         -2.5420    4.5007    0.3120 C.ar      1 ATP         0.7186
     27 N6         -3.0874    5.3993   -0.4432 N.2       1 ATP        -0.8115
     28 N1         -3.0494    4.0205    1.5133 N.pl3     1 ATP        -0.8400
     29 C2         -2.3933    3.0527    2.2567 C.ar      1 ATP         0.6671
     30 N3         -1.2611    2.4796    1.9536 N.2       1 ATP        -0.5806
     31 C4         -0.7334    2.9358    0.7669 C.ar      1 ATP         0.2748
     32 HOG3        1.9039   -2.7527   -7.9151 H         1 ATP         0.4327
     33 HOB2        3.5806   -3.4533   -3.3904 H         1 ATP         0.4701
     34 H5'1        1.3514    0.2330   -2.1577 H         1 ATP         0.0401
     35 H5'2        2.1280   -1.3678   -2.0460 H         1 ATP         0.0401
     36 H4'         3.8044   -0.1397   -0.4040 H         1 ATP         0.1136
     37 H3'         1.6764   -1.7639    0.2728 H         1 ATP         0.0693
     38 HO3'        3.5554   -1.2733    1.4914 H         1 ATP         0.4124
     39 H2'        -0.0011    0.0027    0.0003 H         1 ATP         0.0854
     40 HO2'       -0.1563   -0.9855    2.0596 H         1 ATP         0.4367
     41 H1'         1.7826    1.9024    1.6451 H         1 ATP         0.1343
     42 H8          1.3912    3.1285   -1.6365 H         1 ATP         0.3302
     43 HN62       -3.9637    5.7084   -0.0142 H         1 ATP         0.4160
     44 H2         -2.9317    2.7866    3.1796 H         1 ATP         0.0756
     45 H45        -3.9307    4.3923    1.8559 H         1 ATP         0.4587
     46 H46        -0.5835    4.6857   -1.9122 H         1 ATP         0.5254
@<TRIPOS>BOND
     1    1    2 2
     2    1    3 1
     3    1    4 1
     4    1    8 1
     5    4   32 1
     6    5    6 2
     7    5    7 1
     8    5    8 1
     9    5   12 1
    10    7   33 1
    11    9   10 2
    12    9   11 1
    13    9   12 1
    14    9   13 1
    15   13   14 1
    16   14   15 1
    17   14   34 1
    18   14   35 1
    19   15   16 1
    20   15   17 1
    21   15   36 1
    22   16   21 1
    23   17   18 1
    24   17   19 1
    25   17   37 1
    26   18   38 1
    27   19   20 1
    28   19   21 1
    29   19   39 1
    30   20   40 1
    31   21   22 1
    32   21   41 1
    33   22   23 ar
    34   22   31 ar
    35   23   24 ar
    36   23   42 1
    37   24   25 ar
    38   24   46 1
    39   25   26 ar
    40   25   31 ar
    41   26   27 2
    42   26   28 ar
    43   27   43 1
    44   28   29 ar
    45   28   45 1
    46   29   30 ar
    47   29   44 1
    48   30   31 ar
@<TRIPOS>SUBSTRUCTURE
     1 ATP         1 GROUP 0 A     ****
@<TRIPOS>MOLECULE
[[[3,4-dihydroxy-5-(6-imino-7,8-dihydro-1~{H}-purin-8-ylium-9-yl)tetrahydrofuran-2-yl]methoxy-oxido-phosphoryl]oxy-hydroxy-phosphoryl] hydrogen phosphate
   46    48     1     0     0
SMALL
USER_CHARGES

@<TRIPOS>ATOM
      1 PG          3.1869    3.0303   -6.9141 P.3       1 ATP         1.5595
      2 O1G         4.4891    2.5908   -6.2826 O.co2     1 ATP        -0.8438
      3 O2G         2.4278    4.2240   -6.3790 O.co2     1 ATP        -0.8438
      4 O3G         3.4338    3.2474   -8.5135 O.3       1 ATP        -0.7800
      5 PB          0.9862    1.2917   -6.0016 P.3       1 ATP         1.9223
      6 O1B        -0.1257    2.2851   -5.8367 O.2       1 ATP        -0.8953
      7 O2B         0.5378   -0.1484   -6.5835 O.3       1 ATP        -0.8165
      8 O3B         2.1790    1.7503   -6.9915 O.3       1 ATP        -0.8247
      9 PA          3.0673   -0.0858   -4.4292 P.3       1 ATP         1.6157
     10 O1A         4.2678    0.4442   -5.1827 O.co2     1 ATP        -0.8629
     11 O2A         2.5799   -1.5015   -4.6484 O.co2     1 ATP        -0.8629
     12 O3A         1.8103    0.9304   -4.6600 O.3       1 ATP        -0.8191
     13 O5'         3.2903    0.1346   -2.8241 O.3       1 ATP        -0.5644
     14 C5'         2.2816   -0.2918   -1.9206 C.3       1 ATP         0.2062
     15 C4'         2.7248    0.0226   -0.4980 C.3       1 ATP         0.0971
     16 O4'         2.4697    1.4219   -0.2462 O.3       1 ATP        -0.3662
     17 C3'         1.9404   -0.7419    0.5596 C.3       1 ATP         0.0734
     18 O3'         2.7418   -0.8086    1.7389 O.3       1 ATP        -0.5671
     19 C2'         0.7477    0.1630    0.7858 C.3       1 ATP         0.0745
     20 O2'         0.1373   -0.0577    2.0407 O.3       1 ATP        -0.5794
     21 C1'         1.3733    1.5427    0.6747 C.3       1 ATP         0.3824
     22 N9          0.4520    2.5240    0.1767 N.pl3     1 ATP        -0.4324
     23 C8          0.5691    3.2215   -0.9485 C.ar      1 ATP         0.2662
     24 N7         -0.4499    4.0551   -1.1342 N.pl3     1 ATP        -0.4772
     25 C5         -1.2618    3.8674   -0.0512 C.ar      1 ATP        -0.1305
     26 C6         -2.5420    4.5007    0.3120 C.ar      1 ATP         0.7186
     27 N6         -3.0874    5.3993   -0.4432 N.2       1 ATP        -0.8115
     28 N1         -3.0494    4.0205    1.5133 N.pl3     1 ATP        -0.8400
     29 C2         -2.3933    3.0527    2.2567 C.ar      1 ATP         0.6671
     30 N3         -1.2611    2.4796    1.9536 N.2       1 ATP        -0.5806
     31 C4         -0.7334    2.9358    0.7669 C.ar      1 ATP         0.2748
     32 HOG3        2.6774    3.5354   -9.0676 H         1 ATP         0.4327
     33 HOB2       -0.1161   -0.6802   -6.0816 H         1 ATP         0.4701
     34 H5'1        1.3514    0.2330   -2.1577 H         1 ATP         0.0401
     35 H5'2        2.1280   -1.3678   -2.0460 H         1 ATP         0.0401
     36 H4'         3.8044   -0.1397   -0.4040 H         1 ATP         0.1136
     37 H3'         1.6764   -1.7639    0.2728 H         1 ATP         0.0693
     38 HO3'        3.5554   -1.2733    1.4914 H         1 ATP         0.4124
     39 H2'        -0.0011    0.0027    0.0003 H         1 ATP         0.0854
     40 HO2'        0.8082    0.1199    2.7232 H         1 ATP         0.4367
     41 H1'         1.7826    1.9024    1.6451 H         1 ATP         0.1343
     42 H8          1.3912    3.1285   -1.6365 H         1 ATP         0.3302
     43 HN62       -3.9637    5.7084   -0.0142 H         1 ATP         0.4160
     44 H2         -2.9317    2.7866    3.1796 H         1 ATP         0.0756
     45 H45        -3.9307    4.3923    1.8559 H         1 ATP         0.4587
     46 H46        -0.5835    4.6857   -1.9122 H         1 ATP         0.5254
@<TRIPOS>BOND
     1    1    2 2
     2    1    3 1
     3    1    4 1
     4    1    8 1
     5    4   32 1
     6    5    6 2
     7    5    7 1
     8    5    8 1
     9    5   12 1
    10    7   33 1
    11    9   10 2
    12    9   11 1
    13    9   12 1
    14    9   13 1
    15   13   14 1
    16   14   15 1
    17   14   34 1
    18   14   35 1
    19   15   16 1
    20   15   17 1
    21   15   36 1
    22   16   21 1
    23   17   18 1
    24   17   19 1
    25   17   37 1
    26   18   38 1
    27   19   20 1
    28   19   21 1
    29   19   39 1
    30   20   40 1
    31   21   22 1
    32   21   41 1
    33   22   23 ar
    34   22   31 ar
    35   23   24 ar
    36   23   42 1
    37   24   25 ar
    38   24   46 1
    39   25   26 ar
    40   25   31 ar
    41   26   27 2
    42   26   28 ar
    43   27   43 1
    44   28   29 ar
    45   28   45 1
    46   29   30 ar
    47   29   44 1
    48   30   31 ar
@<TRIPOS>SUBSTRUCTURE
     1 ATP         1 GROUP 0 A     ****
@<TRIPOS>MOLECULE
[[[3,4-dihydroxy-5-(6-imino-7,8-dihydro-1~{H}-purin-8-ylium-9-yl)tetrahydrofuran-2-yl]methoxy-oxido-phosphoryl]oxy-hydroxy-phosphoryl] hydrogen phosphate
   46    48     1     0     0
SMALL
USER_CHARGES

@<TRIPOS>ATOM
      1 PG          8.0743    0.1565   -3.3775 P.3       1 ATP         1.5595
      2 O1G         8.3867    1.3737   -4.2193 O.co2     1 ATP        -0.8438
      3 O2G         9.0264   -1.0174   -3.3255 O.co2     1 ATP        -0.8438
      4 O3G         7.7720    0.6469   -1.8496 O.3       1 ATP        -0.7800
      5 PB          5.6815   -1.5434   -3.0898 P.3       1 ATP         1.9223
      6 O1B         6.2907   -2.9143   -3.0985 O.2       1 ATP        -0.8953
      7 O2B         5.3349   -0.9569   -1.6237 O.3       1 ATP        -0.8165
      8 O3B         6.5843   -0.3837   -3.7627 O.3       1 ATP        -0.8247
      9 PA          2.8603   -2.1314   -3.7189 P.3       1 ATP         1.6157
     10 O1A         3.0799   -3.6282   -3.7534 O.co2     1 ATP        -0.8629
     11 O2A         1.8577   -1.4754   -4.6432 O.co2     1 ATP        -0.8629
     12 O3A         4.2991   -1.3837   -3.9101 O.3       1 ATP        -0.8191
     13 O5'         2.5245   -1.6648   -2.1878 O.3       1 ATP        -0.5644
     14 C5'         2.2816   -0.2918   -1.9206 C.3       1 ATP         0.2062
     15 C4'         2.7248    0.0226   -0.4980 C.3       1 ATP         0.0971
     16 O4'         2.4697    1.4219   -0.2462 O.3       1 ATP        -0.3662
     17 C3'         1.9404   -0.7419    0.5596 C.3       1 ATP         0.0734
     18 O3'         2.7418   -0.8086    1.7389 O.3       1 ATP        -0.5671
     19 C2'         0.7477    0.1630    0.7858 C.3       1 ATP         0.0745
     20 O2'         0.1373   -0.0577    2.0407 O.3       1 ATP        -0.5794
     21 C1'         1.3733    1.5427    0.6747 C.3       1 ATP         0.3824
     22 N9          0.4520    2.5240    0.1767 N.pl3     1 ATP        -0.4324
     23 C8          0.2216    2.8192   -1.0985 C.ar      1 ATP         0.2662
     24 N7         -0.6906    3.7763   -1.2384 N.pl3     1 ATP        -0.4772
     25 C5         -1.0575    4.1037    0.0366 C.ar      1 ATP        -0.1305
     26 C6         -2.0291    5.0943    0.5330 C.ar      1 ATP         0.7186
     27 N6         -2.7093    5.8371   -0.2800 N.2       1 ATP        -0.8115
     28 N1         -2.1051    5.1136    1.9204 N.pl3     1 ATP        -0.8400
     29 C2         -1.3354    4.2774    2.7129 C.ar      1 ATP         0.6671
     30 N3         -0.4707    3.3945    2.2944 N.2       1 ATP        -0.5806
     31 C4         -0.3734    3.3525    0.9220 C.ar      1 ATP         0.2748
     32 HOG3        7.5511   -0.0318   -1.1767 H         1 ATP         0.4327
     33 HOB2        4.7039   -1.4462   -1.0538 H         1 ATP         0.4701
     34 H5'1        2.8432    0.3119   -2.6398 H         1 ATP         0.0401
     35 H5'2        1.2128   -0.0927   -2.0428 H         1 ATP         0.0401
     36 H4'         3.8044   -0.1397   -0.4040 H         1 ATP         0.1136
     37 H3'         1.6764   -1.7639    0.2728 H         1 ATP         0.0693
     38 HO3'        3.5554   -1.2733    1.4914 H         1 ATP         0.4124
     39 H2'        -0.0011    0.0027    0.0003 H         1 ATP         0.0854
     40 HO2'       -0.6141    0.5574    2.1082 H         1 ATP         0.4367
     41 H1'         1.7826    1.9024    1.6451 H         1 ATP         0.1343
     42 H8          0.7125    2.3429   -1.9292 H         1 ATP         0.3302
     43 HN62       -3.3217    6.4517    0.2629 H         1 ATP         0.4160
     44 H2         -1.5188    4.4223    3.7890 H         1 ATP         0.0756
     45 H45        -2.7470    5.7627    2.3665 H         1 ATP         0.4587
     46 H46        -1.0305    4.1680   -2.1054 H         1 ATP         0.5254
@<TRIPOS>BOND
     1    1    2 2
     2    1    3 1
     3    1    4 1
     4    1    8 1
     5    4   32 1
     6    5    6 2
     7    5    7 1
     8    5    8 1
     9    5   12 1
    10    7   33 1
    11    9   10 2
    12    9   11 1
    13    9   12 1
    14    9   13 1
    15   13   14 1
    16   14   15 1
    17   14   34 1
    18   14   35 1
    19   15   16 1
    20   15   17 1
    21   15   36 1
    22   16   21 1
    23   17   18 1
    24   17   19 1
    25   17   37 1
    26   18   38 1
    27   19   20 1
    28   19   21 1
    29   19   39 1
    30   20   40 1
    31   21   22 1
    32   21   41 1
    33   22   23 ar
    34   22   31 ar
    35   23   24 ar
    36   23   42 1
    37   24   25 ar
    38   24   46 1
    39   25   26 ar
    40   25   31 ar
    41   26   27 2
    42   26   28 ar
    43   27   43 1
    44   28   29 ar
    45   28   45 1
    46   29   30 ar
    47   29   44 1
    48   30   31 ar
@<TRIPOS>SUBSTRUCTURE
     1 ATP         1 GROUP 0 A     ****
@<TRIPOS>MOLECULE
[[[3,4-dihydroxy-5-(6-imino-7,8-dihydro-1~{H}-purin-8-ylium-9-yl)tetrahydrofuran-2-yl]methoxy-oxido-phosphoryl]oxy-hydroxy-phosphoryl] hydrogen phosphate
   46    48     1     0     0
SMALL
USER_CHARGES

@<TRIPOS>ATOM
      1 PG          3.2157   -1.8794   -7.5755 P.3       1 ATP         1.5595
      2 O1G         4.4116   -1.2962   -8.2949 O.co2     1 ATP        -0.8438
      3 O2G         2.0512   -2.4586   -8.3475 O.co2     1 ATP        -0.8438
      4 O3G         3.7456   -3.0032   -6.5161 O.3       1 ATP        -0.7800
      5 PB          1.5055   -0.9074   -5.3782 P.3       1 ATP         1.9223
      6 O1B         0.1398   -1.2595   -5.8894 O.2       1 ATP        -0.8953
      7 O2B         2.1295   -1.9527   -4.3145 O.3       1 ATP        -0.8165
      8 O3B         2.6533   -0.7808   -6.5093 O.3       1 ATP        -0.8247
      9 PA          2.9230    1.2546   -3.9578 P.3       1 ATP         1.6157
     10 O1A         2.4619    2.5263   -3.2796 O.co2     1 ATP        -0.8629
     11 O2A         4.0434    1.2827   -4.9744 O.co2     1 ATP        -0.8629
     12 O3A         1.6316    0.5231   -4.6386 O.3       1 ATP        -0.8191
     13 O5'         3.2903    0.1346   -2.8241 O.3       1 ATP        -0.5644
     14 C5'         2.2816   -0.2918   -1.9206 C.3       1 ATP         0.2062
     15 C4'         2.7248    0.0226   -0.4980 C.3       1 ATP         0.0971
     16 O4'         2.4697    1.4219   -0.2462 O.3       1 ATP        -0.3662
     17 C3'         1.9404   -0.7419    0.5596 C.3       1 ATP         0.0734
     18 O3'         2.7418   -0.8086    1.7389 O.3       1 ATP        -0.5671
     19 C2'         0.7477    0.1630    0.7858 C.3       1 ATP         0.0745
     20 O2'         0.1373   -0.0577    2.0407 O.3       1 ATP        -0.5794
     21 C1'         1.3733    1.5427    0.6747 C.3       1 ATP         0.3824
     22 N9          0.4520    2.5240    0.1767 N.pl3     1 ATP        -0.4324
     23 C8         -0.2004    2.4829   -0.9804 C.ar      1 ATP         0.2662
     24 N7         -0.9830    3.5431   -1.1568 N.pl3     1 ATP        -0.4772
     25 C5         -0.8095    4.3012   -0.0331 C.ar      1 ATP        -0.1305
     26 C6         -1.4065    5.5904    0.3585 C.ar      1 ATP         0.7186
     27 N6         -2.2501    6.2030   -0.4084 N.2       1 ATP        -0.8115
     28 N1         -0.9585    6.0272    1.5994 N.pl3     1 ATP        -0.8400
     29 C2         -0.0508    5.3009    2.3532 C.ar      1 ATP         0.6671
     30 N3          0.4890    4.1592    2.0257 N.2       1 ATP        -0.5806
     31 C4          0.0637    3.7006    0.7995 C.ar      1 ATP         0.2748
     32 HOG3        3.0841   -3.4765   -5.9679 H         1 ATP         0.4327
     33 HOB2        1.6511   -2.1168   -3.4740 H         1 ATP         0.4701
     34 H5'1        1.3514    0.2330   -2.1577 H         1 ATP         0.0401
     35 H5'2        2.1280   -1.3678   -2.0460 H         1 ATP         0.0401
     36 H4'         3.8044   -0.1397   -0.4040 H         1 ATP         0.1136
     37 H3'         1.6764   -1.7639    0.2728 H         1 ATP         0.0693
     38 HO3'        2.2232   -1.2979    2.3953 H         1 ATP         0.4124
     39 H2'        -0.0011    0.0027    0.0003 H         1 ATP         0.0854
     40 HO2'       -0.6141    0.5574    2.1082 H         1 ATP         0.4367
     41 H1'         1.7826    1.9024    1.6451 H         1 ATP         0.1343
     42 H8         -0.1116    1.6863   -1.6984 H         1 ATP         0.3302
     43 HN62       -2.5420    7.0730    0.0447 H         1 ATP         0.4160
     44 H2          0.1969    5.7893    3.3086 H         1 ATP         0.0756
     45 H45        -1.3097    6.9080    1.9642 H         1 ATP         0.4587
     46 H46        -1.5735    3.7351   -1.9538 H         1 ATP         0.5254
@<TRIPOS>BOND
     1    1    2 2
     2    1    3 1
     3    1    4 1
     4    1    8 1
     5    4   32 1
     6    5    6 2
     7    5    7 1
     8    5    8 1
     9    5   12 1
    10    7   33 1
    11    9   10 2
    12    9   11 1
    13    9   12 1
    14    9   13 1
    15   13   14 1
    16   14   15 1
    17   14   34 1
    18   14   35 1
    19   15   16 1
    20   15   17 1
    21   15   36 1
    22   16   21 1
    23   17   18 1
    24   17   19 1
    25   17   37 1
    26   18   38 1
    27   19   20 1
    28   19   21 1
    29   19   39 1
    30   20   40 1
    31   21   22 1
    32   21   41 1
    33   22   23 ar
    34   22   31 ar
    35   23   24 ar
    36   23   42 1
    37   24   25 ar
    38   24   46 1
    39   25   26 ar
    40   25   31 ar
    41   26   27 2
    42   26   28 ar
    43   27   43 1
    44   28   29 ar
    45   28   45 1
    46   29   30 ar
    47   29   44 1
    48   30   31 ar
@<TRIPOS>SUBSTRUCTURE
     1 ATP         1 GROUP 0 A     ****
@<TRIPOS>MOLECULE
[[[3,4-dihydroxy-5-(6-imino-7,8-dihydro-1~{H}-purin-8-ylium-9-yl)tetrahydrofuran-2-yl]methoxy-oxido-phosphoryl]oxy-hydroxy-phosphoryl] hydrogen phosphate
   46    48     1     0     0
SMALL
USER_CHARGES

@<TRIPOS>ATOM
      1 PG         -5.7228   -3.3771    3.1625 P.3       1 ATP         1.5595
      2 O1G        -5.6899   -3.0086    4.6291 O.co2     1 ATP        -0.8438
      3 O2G        -6.8232   -2.8684    2.2581 O.co2     1 ATP        -0.8438
      4 O3G        -4.2834   -2.9869    2.4977 O.3       1 ATP        -0.7800
      5 PB         -4.5543   -6.0440    3.6316 P.3       1 ATP         1.9223
      6 O1B        -4.4610   -6.0661    5.1287 O.2       1 ATP        -0.8953
      7 O2B        -4.9612   -7.4520    2.9495 O.3       1 ATP        -0.8165
      8 O3B        -5.6273   -4.9993    3.0233 O.3       1 ATP        -0.8247
      9 PA         -1.7207   -6.2768    2.8457 P.3       1 ATP         1.6157
     10 O1A        -1.8041   -7.6468    2.2084 O.co2     1 ATP        -0.8629
     11 O2A        -1.1159   -6.0993    4.2214 O.co2     1 ATP        -0.8629
     12 O3A        -3.2097   -5.6068    2.8503 O.3       1 ATP        -0.8191
     13 O5'        -0.9724   -5.2440    1.8220 O.3       1 ATP        -0.5644
     14 C5'        -0.7840   -3.8935    2.2172 C.3       1 ATP         0.2062
     15 C4'        -0.0724   -3.1466    1.1027 C.3       1 ATP         0.0971
     16 O4'        -0.8674   -3.1929   -0.0945 O.3       1 ATP        -0.3662
     17 C3'         0.1338   -1.6715    1.4027 C.3       1 ATP         0.0734
     18 O3'         1.2893   -1.4445    2.1808 O.3       1 ATP        -0.5671
     19 C2'         0.2158   -1.0724    0.0128 C.3       1 ATP         0.0745
     20 O2'         1.5141   -1.2448   -0.5513 O.3       1 ATP        -0.5794
     21 C1'        -0.7897   -1.9176   -0.7583 C.3       1 ATP         0.3824
     22 N9         -2.1040   -1.3333   -0.7704 N.pl3     1 ATP        -0.4324
     23 C8         -3.0590   -1.5123    0.1363 C.ar      1 ATP         0.2662
     24 N7         -4.1655   -0.8354   -0.1554 N.pl3     1 ATP        -0.4772
     25 C5         -3.8852   -0.1874   -1.3253 C.ar      1 ATP        -0.1305
     26 C6         -4.7113    0.7160   -2.1458 C.ar      1 ATP         0.7186
     27 N6         -5.9213    1.0209   -1.8021 N.2       1 ATP        -0.8115
     28 N1         -4.0411    1.1673   -3.2764 N.pl3     1 ATP        -0.8400
     29 C2         -2.7403    0.7865   -3.5638 C.ar      1 ATP         0.6671
     30 N3         -1.9921   -0.0108   -2.8519 N.2       1 ATP        -0.5806
     31 C4         -2.6302   -0.4747   -1.7239 C.ar      1 ATP         0.2748
     32 HOG3       -4.1464   -3.1660    1.5430 H         1 ATP         0.4327
     33 HOB2       -4.3831   -8.2320    3.0900 H         1 ATP         0.4701
     34 H5'1       -1.7618   -3.4448    2.4164 H         1 ATP         0.0401
     35 H5'2       -0.1874   -3.8744    3.1341 H         1 ATP         0.0401
     36 H4'         0.8874   -3.6466    0.8805 H         1 ATP         0.1136
     37 H3'        -0.7376   -1.2333    1.9867 H         1 ATP         0.0693
     38 HO3'        1.3408   -0.4870    2.3219 H         1 ATP         0.4124
     39 H2'        -0.0384   -0.0310    0.0096 H         1 ATP         0.0854
     40 HO2'        2.1463   -0.7958    0.0370 H         1 ATP         0.4367
     41 H1'        -0.4769   -2.1002   -1.8093 H         1 ATP         0.1343
     42 H8         -2.9569   -2.1323    1.0098 H         1 ATP         0.3302
     43 HN62       -6.3169    1.6552   -2.5012 H         1 ATP         0.4160
     44 H2         -2.3612    1.2343   -4.4957 H         1 ATP         0.0756
     45 H45        -4.5223    1.7976   -3.9117 H         1 ATP         0.4587
     46 H46        -5.0218   -0.8132    0.3804 H         1 ATP         0.5254
@<TRIPOS>BOND
     1    1    2 2
     2    1    3 1
     3    1    4 1
     4    1    8 1
     5    4   32 1
     6    5    6 2
     7    5    7 1
     8    5    8 1
     9    5   12 1
    10    7   33 1
    11    9   10 2
    12    9   11 1
    13    9   12 1
    14    9   13 1
    15   13   14 1
    16   14   15 1
    17   14   34 1
    18   14   35 1
    19   15   16 1
    20   15   17 1
    21   15   36 1
    22   16   21 1
    23   17   18 1
    24   17   19 1
    25   17   37 1
    26   18   38 1
    27   19   20 1
    28   19   21 1
    29   19   39 1
    30   20   40 1
    31   21   22 1
    32   21   41 1
    33   22   23 ar
    34   22   31 ar
    35   23   24 ar
    36   23   42 1
    37   24   25 ar
    38   24   46 1
    39   25   26 ar
    40   25   31 ar
    41   26   27 2
    42   26   28 ar
    43   27   43 1
    44   28   29 ar
    45   28   45 1
    46   29   30 ar
    47   29   44 1
    48   30   31 ar
@<TRIPOS>SUBSTRUCTURE
     1 ATP         1 GROUP 0 A     ****
@<TRIPOS>MOLECULE
[[[3,4-dihydroxy-5-(6-imino-7,8-dihydro-1~{H}-purin-8-ylium-9-yl)tetrahydrofuran-2-yl]methoxy-oxido-phosphoryl]oxy-hydroxy-phosphoryl] hydrogen phosphate
   46    48     1     0     0
SMALL
USER_CHARGES

@<TRIPOS>ATOM
      1 PG          3.1869    3.0303   -6.9141 P.3       1 ATP         1.5595
      2 O1G         2.3657    4.2923   -6.7708 O.co2     1 ATP        -0.8438
      3 O2G         4.2313    2.9020   -8.0005 O.co2     1 ATP        -0.8438
      4 O3G         3.8906    2.7040   -5.4773 O.3       1 ATP        -0.7800
      5 PB          0.9862    1.2917   -6.0016 P.3       1 ATP         1.9223
      6 O1B        -0.1257    2.2851   -5.8367 O.2       1 ATP        -0.8953
      7 O2B         0.5378   -0.1484   -6.5835 O.3       1 ATP        -0.8165
      8 O3B         2.1790    1.7503   -6.9915 O.3       1 ATP        -0.8247
      9 PA          3.0673   -0.0858   -4.4292 P.3       1 ATP         1.6157
     10 O1A         4.2678    0.4442   -5.1827 O.co2     1 ATP        -0.8629
     11 O2A         2.5799   -1.5015   -4.6484 O.co2     1 ATP        -0.8629
     12 O3A         1.8103    0.9304   -4.6600 O.3       1 ATP        -0.8191
     13 O5'         3.2903    0.1346   -2.8241 O.3       1 ATP        -0.5644
     14 C5'         2.2816   -0.2918   -1.9206 C.3       1 ATP         0.2062
     15 C4'         2.7248    0.0226   -0.4980 C.3       1 ATP         0.0971
     16 O4'         2.4697    1.4219   -0.2462 O.3       1 ATP        -0.3662
     17 C3'         1.9404   -0.7419    0.5596 C.3       1 ATP         0.0734
     18 O3'         2.7418   -0.8086    1.7389 O.3       1 ATP        -0.5671
     19 C2'         0.7477    0.1630    0.7858 C.3       1 ATP         0.0745
     20 O2'         0.1373   -0.0577    2.0407 O.3       1 ATP        -0.5794
     21 C1'         1.3733    1.5427    0.6747 C.3       1 ATP         0.3824
     22 N9          0.4520    2.5240    0.1767 N.pl3     1 ATP        -0.4324
     23 C8          0.2216    2.8192   -1.0985 C.ar      1 ATP         0.2662
     24 N7         -0.6906    3.7763   -1.2384 N.pl3     1 ATP        -0.4772
     25 C5         -1.0575    4.1037    0.0366 C.ar      1 ATP        -0.1305
     26 C6         -2.0291    5.0943    0.5330 C.ar      1 ATP         0.7186
     27 N6         -2.7093    5.8371   -0.2800 N.2       1 ATP        -0.8115
     28 N1         -2.1051    5.1136    1.9204 N.pl3     1 ATP        -0.8400
     29 C2         -1.3354    4.2774    2.7129 C.ar      1 ATP         0.6671
     30 N3         -0.4707    3.3945    2.2944 N.2       1 ATP        -0.5806
     31 C4         -0.3734    3.3525    0.9220 C.ar      1 ATP         0.2748
     32 HOG3        3.3136    2.5529   -4.6985 H         1 ATP         0.4327
     33 HOB2       -0.1161   -0.6802   -6.0816 H         1 ATP         0.4701
     34 H5'1        1.3514    0.2330   -2.1577 H         1 ATP         0.0401
     35 H5'2        2.1280   -1.3678   -2.0460 H         1 ATP         0.0401
     36 H4'         3.8044   -0.1397   -0.4040 H         1 ATP         0.1136
     37 H3'         1.6764   -1.7639    0.2728 H         1 ATP         0.0693
     38 HO3'        2.2232   -1.2979    2.3953 H         1 ATP         0.4124
     39 H2'        -0.0011    0.0027    0.0003 H         1 ATP         0.0854
     40 HO2'       -0.1563   -0.9855    2.0596 H         1 ATP         0.4367
     41 H1'         1.7826    1.9024    1.6451 H         1 ATP         0.1343
     42 H8          0.7125    2.3429   -1.9292 H         1 ATP         0.3302
     43 HN62       -3.3217    6.4517    0.2629 H         1 ATP         0.4160
     44 H2         -1.5188    4.4223    3.7890 H         1 ATP         0.0756
     45 H45        -2.7470    5.7627    2.3665 H         1 ATP         0.4587
     46 H46        -1.0305    4.1680   -2.1054 H         1 ATP         0.5254
@<TRIPOS>BOND
     1    1    2 2
     2    1    3 1
     3    1    4 1
     4    1    8 1
     5    4   32 1
     6    5    6 2
     7    5    7 1
     8    5    8 1
     9    5   12 1
    10    7   33 1
    11    9   10 2
    12    9   11 1
    13    9   12 1
    14    9   13 1
    15   13   14 1
    16   14   15 1
    17   14   34 1
    18   14   35 1
    19   15   16 1
    20   15   17 1
    21   15   36 1
    22   16   21 1
    23   17   18 1
    24   17   19 1
    25   17   37 1
    26   18   38 1
    27   19   20 1
    28   19   21 1
    29   19   39 1
    30   20   40 1
    31   21   22 1
    32   21   41 1
    33   22   23 ar
    34   22   31 ar
    35   23   24 ar
    36   23   42 1
    37   24   25 ar
    38   24   46 1
    39   25   26 ar
    40   25   31 ar
    41   26   27 2
    42   26   28 ar
    43   27   43 1
    44   28   29 ar
    45   28   45 1
    46   29   30 ar
    47   29   44 1
    48   30   31 ar
@<TRIPOS>SUBSTRUCTURE
     1 ATP         1 GROUP 0 A     ****
@<TRIPOS>MOLECULE
[[[3,4-dihydroxy-5-(6-imino-7,8-dihydro-1~{H}-purin-8-ylium-9-yl)tetrahydrofuran-2-yl]methoxy-oxido-phosphoryl]oxy-hydroxy-phosphoryl] hydrogen phosphate
   46    48     1     0     0
SMALL
USER_CHARGES

@<TRIPOS>ATOM
      1 PG          0.4518    4.6539   -6.6547 P.3       1 ATP         1.5595
      2 O1G         1.6858    5.0925   -7.4113 O.co2     1 ATP        -0.8438
      3 O2G        -0.5261    5.6697   -6.1075 O.co2     1 ATP        -0.8438
      4 O3G        -0.3708    3.5877   -7.5782 O.3       1 ATP        -0.7800
      5 PB          0.0060    2.7652   -4.4339 P.3       1 ATP         1.9223
      6 O1B        -0.9307    3.5493   -3.5632 O.2       1 ATP        -0.8953
      7 O2B        -0.7019    1.6717   -5.3914 O.3       1 ATP        -0.8165
      8 O3B         0.8994    3.6458   -5.4532 O.3       1 ATP        -0.8247
      9 PA          2.3334    0.9635   -4.2388 P.3       1 ATP         1.6157
     10 O1A         3.3073    1.8124   -5.0268 O.co2     1 ATP        -0.8629
     11 O2A         1.6936   -0.2585   -4.8610 O.co2     1 ATP        -0.8629
     12 O3A         1.1470    1.9241   -3.6593 O.3       1 ATP        -0.8191
     13 O5'         3.0213    0.5153   -2.8245 O.3       1 ATP        -0.5644
     14 C5'         2.2816   -0.2918   -1.9206 C.3       1 ATP         0.2062
     15 C4'         2.7248    0.0226   -0.4980 C.3       1 ATP         0.0971
     16 O4'         2.4697    1.4219   -0.2462 O.3       1 ATP        -0.3662
     17 C3'         1.9404   -0.7419    0.5596 C.3       1 ATP         0.0734
     18 O3'         2.7418   -0.8086    1.7389 O.3       1 ATP        -0.5671
     19 C2'         0.7477    0.1630    0.7858 C.3       1 ATP         0.0745
     20 O2'         0.1373   -0.0577    2.0407 O.3       1 ATP        -0.5794
     21 C1'         1.3733    1.5427    0.6747 C.3       1 ATP         0.3824
     22 N9          0.4520    2.5240    0.1767 N.pl3     1 ATP        -0.4324
     23 C8         -0.2004    2.4829   -0.9804 C.ar      1 ATP         0.2662
     24 N7         -0.9830    3.5431   -1.1568 N.pl3     1 ATP        -0.4772
     25 C5         -0.8095    4.3012   -0.0331 C.ar      1 ATP        -0.1305
     26 C6         -1.4065    5.5904    0.3585 C.ar      1 ATP         0.7186
     27 N6         -2.2501    6.2030   -0.4084 N.2       1 ATP        -0.8115
     28 N1         -0.9585    6.0272    1.5994 N.pl3     1 ATP        -0.8400
     29 C2         -0.0508    5.3009    2.3532 C.ar      1 ATP         0.6671
     30 N3          0.4890    4.1592    2.0257 N.2       1 ATP        -0.5806
     31 C4          0.0637    3.7006    0.7995 C.ar      1 ATP         0.2748
     32 HOG3       -1.2027    3.2077   -7.2237 H         1 ATP         0.4327
     33 HOB2       -1.2255    0.9504   -4.9818 H         1 ATP         0.4701
     34 H5'1        1.2163   -0.0770   -2.0471 H         1 ATP         0.0401
     35 H5'2        2.4655   -1.3443   -2.1563 H         1 ATP         0.0401
     36 H4'         3.8044   -0.1397   -0.4040 H         1 ATP         0.1136
     37 H3'         1.6764   -1.7639    0.2728 H         1 ATP         0.0693
     38 HO3'        3.5554   -1.2733    1.4914 H         1 ATP         0.4124
     39 H2'        -0.0011    0.0027    0.0003 H         1 ATP         0.0854
     40 HO2'       -0.6141    0.5574    2.1082 H         1 ATP         0.4367
     41 H1'         1.7826    1.9024    1.6451 H         1 ATP         0.1343
     42 H8         -0.1116    1.6863   -1.6984 H         1 ATP         0.3302
     43 HN62       -2.5420    7.0730    0.0447 H         1 ATP         0.4160
     44 H2          0.1969    5.7893    3.3086 H         1 ATP         0.0756
     45 H45        -1.3097    6.9080    1.9642 H         1 ATP         0.4587
     46 H46        -1.5735    3.7351   -1.9538 H         1 ATP         0.5254
@<TRIPOS>BOND
     1    1    2 2
     2    1    3 1
     3    1    4 1
     4    1    8 1
     5    4   32 1
     6    5    6 2
     7    5    7 1
     8    5    8 1
     9    5   12 1
    10    7   33 1
    11    9   10 2
    12    9   11 1
    13    9   12 1
    14    9   13 1
    15   13   14 1
    16   14   15 1
    17   14   34 1
    18   14   35 1
    19   15   16 1
    20   15   17 1
    21   15   36 1
    22   16   21 1
    23   17   18 1
    24   17   19 1
    25   17   37 1
    26   18   38 1
    27   19   20 1
    28   19   21 1
    29   19   39 1
    30   20   40 1
    31   21   22 1
    32   21   41 1
    33   22   23 ar
    34   22   31 ar
    35   23   24 ar
    36   23   42 1
    37   24   25 ar
    38   24   46 1
    39   25   26 ar
    40   25   31 ar
    41   26   27 2
    42   26   28 ar
    43   27   43 1
    44   28   29 ar
    45   28   45 1
    46   29   30 ar
    47   29   44 1
    48   30   31 ar
@<TRIPOS>SUBSTRUCTURE
     1 ATP         1 GROUP 0 A     ****
@<TRIPOS>MOLECULE
[[[3,4-dihydroxy-5-(6-imino-7,8-dihydro-1~{H}-purin-8-ylium-9-yl)tetrahydrofuran-2-yl]methoxy-oxido-phosphoryl]oxy-hydroxy-phosphoryl] hydrogen phosphate
   46    48     1     0     0
SMALL
USER_CHARGES

@<TRIPOS>ATOM
      1 PG         -1.5122   -4.8719   -1.9486 P.3       1 ATP         1.5595
      2 O1G        -2.9549   -4.7886   -2.3950 O.co2     1 ATP        -0.8438
      3 O2G        -1.1454   -4.7796   -0.4842 O.co2     1 ATP        -0.8438
      4 O3G        -0.8579   -6.2365   -2.5618 O.3       1 ATP        -0.7800
      5 PB         -0.6717   -2.1645   -2.7617 P.3       1 ATP         1.9223
      6 O1B        -1.9865   -1.5477   -3.1375 O.2       1 ATP        -0.8953
      7 O2B        -0.1379   -1.7919   -1.2820 O.3       1 ATP        -0.8165
      8 O3B        -0.6363   -3.7803   -2.7861 O.3       1 ATP        -0.8247
      9 PA          2.1371   -2.2715   -3.6563 P.3       1 ATP         1.6157
     10 O1A         2.9134   -1.5359   -4.7268 O.co2     1 ATP        -0.8629
     11 O2A         2.1801   -3.7817   -3.5697 O.co2     1 ATP        -0.8629
     12 O3A         0.5735   -1.8066   -3.7266 O.3       1 ATP        -0.8191
     13 O5'         2.5245   -1.6648   -2.1878 O.3       1 ATP        -0.5644
     14 C5'         2.2816   -0.2918   -1.9206 C.3       1 ATP         0.2062
     15 C4'         2.7248    0.0226   -0.4980 C.3       1 ATP         0.0971
     16 O4'         2.4697    1.4219   -0.2462 O.3       1 ATP        -0.3662
     17 C3'         1.9404   -0.7419    0.5596 C.3       1 ATP         0.0734
     18 O3'         2.7418   -0.8086    1.7389 O.3       1 ATP        -0.5671
     19 C2'         0.7477    0.1630    0.7858 C.3       1 ATP         0.0745
     20 O2'         0.1373   -0.0577    2.0407 O.3       1 ATP        -0.5794
     21 C1'         1.3733    1.5427    0.6747 C.3       1 ATP         0.3824
     22 N9          0.4520    2.5240    0.1767 N.pl3     1 ATP        -0.4324
     23 C8          0.5691    3.2215   -0.9485 C.ar      1 ATP         0.2662
     24 N7         -0.4499    4.0551   -1.1342 N.pl3     1 ATP        -0.4772
     25 C5         -1.2618    3.8674   -0.0512 C.ar      1 ATP        -0.1305
     26 C6         -2.5420    4.5007    0.3120 C.ar      1 ATP         0.7186
     27 N6         -3.0874    5.3993   -0.4432 N.2       1 ATP        -0.8115
     28 N1         -3.0494    4.0205    1.5133 N.pl3     1 ATP        -0.8400
     29 C2         -2.3933    3.0527    2.2567 C.ar      1 ATP         0.6671
     30 N3         -1.2611    2.4796    1.9536 N.2       1 ATP        -0.5806
     31 C4         -0.7334    2.9358    0.7669 C.ar      1 ATP         0.2748
     32 HOG3        0.0812   -6.4353   -2.3601 H         1 ATP         0.4327
     33 HOB2       -0.6866   -2.0320   -0.5051 H         1 ATP         0.4701
     34 H5'1        2.8432    0.3119   -2.6398 H         1 ATP         0.0401
     35 H5'2        1.2128   -0.0927   -2.0428 H         1 ATP         0.0401
     36 H4'         3.8044   -0.1397   -0.4040 H         1 ATP         0.1136
     37 H3'         1.6764   -1.7639    0.2728 H         1 ATP         0.0693
     38 HO3'        2.2232   -1.2979    2.3953 H         1 ATP         0.4124
     39 H2'        -0.0011    0.0027    0.0003 H         1 ATP         0.0854
     40 HO2'       -0.1563   -0.9855    2.0596 H         1 ATP         0.4367
     41 H1'         1.7826    1.9024    1.6451 H         1 ATP         0.1343
     42 H8          1.3912    3.1285   -1.6365 H         1 ATP         0.3302
     43 HN62       -3.9637    5.7084   -0.0142 H         1 ATP         0.4160
     44 H2         -2.9317    2.7866    3.1796 H         1 ATP         0.0756
     45 H45        -3.9307    4.3923    1.8559 H         1 ATP         0.4587
     46 H46        -0.5835    4.6857   -1.9122 H         1 ATP         0.5254
@<TRIPOS>BOND
     1    1    2 2
     2    1    3 1
     3    1    4 1
     4    1    8 1
     5    4   32 1
     6    5    6 2
     7    5    7 1
     8    5    8 1
     9    5   12 1
    10    7   33 1
    11    9   10 2
    12    9   11 1
    13    9   12 1
    14    9   13 1
    15   13   14 1
    16   14   15 1
    17   14   34 1
    18   14   35 1
    19   15   16 1
    20   15   17 1
    21   15   36 1
    22   16   21 1
    23   17   18 1
    24   17   19 1
    25   17   37 1
    26   18   38 1
    27   19   20 1
    28   19   21 1
    29   19   39 1
    30   20   40 1
    31   21   22 1
    32   21   41 1
    33   22   23 ar
    34   22   31 ar
    35   23   24 ar
    36   23   42 1
    37   24   25 ar
    38   24   46 1
    39   25   26 ar
    40   25   31 ar
    41   26   27 2
    42   26   28 ar
    43   27   43 1
    44   28   29 ar
    45   28   45 1
    46   29   30 ar
    47   29   44 1
    48   30   31 ar
@<TRIPOS>SUBSTRUCTURE
     1 ATP         1 GROUP 0 A     ****
@<TRIPOS>MOLECULE
[[[3,4-dihydroxy-5-(6-imino-7,8-dihydro-1~{H}-purin-8-ylium-9-yl)tetrahydrofuran-2-yl]methoxy-oxido-phosphoryl]oxy-hydroxy-phosphoryl] hydrogen phosphate
   46    48     1     0     0
SMALL
USER_CHARGES

@<TRIPOS>ATOM
      1 PG         -0.5399   -2.5744    8.2038 P.3       1 ATP         1.5595
      2 O1G         0.1323   -3.9291    8.1840 O.co2     1 ATP        -0.8438
      3 O2G        -1.9335   -2.4067    8.7671 O.co2     1 ATP        -0.8438
      4 O3G         0.4523   -1.5144    8.9511 O.3       1 ATP        -0.7800
      5 PB         -1.6044   -1.9374    5.5282 P.3       1 ATP         1.9223
      6 O1B        -2.9029   -1.2727    5.8778 O.2       1 ATP        -0.8953
      7 O2B        -0.8253   -1.2973    4.2645 O.3       1 ATP        -0.8165
      8 O3B        -0.4932   -1.9396    6.7022 O.3       1 ATP        -0.8247
      9 PA         -0.5251   -4.5707    4.7523 P.3       1 ATP         1.6157
     10 O1A        -1.1708   -5.8915    4.3939 O.co2     1 ATP        -0.8629
     11 O2A         0.5743   -4.5036    5.7899 O.co2     1 ATP        -0.8629
     12 O3A        -1.6935   -3.5111    5.1745 O.3       1 ATP        -0.8191
     13 O5'         0.0118   -3.8395    3.3916 O.3       1 ATP        -0.5644
     14 C5'        -0.7840   -3.8935    2.2172 C.3       1 ATP         0.2062
     15 C4'        -0.0724   -3.1466    1.1027 C.3       1 ATP         0.0971
     16 O4'        -0.8674   -3.1929   -0.0945 O.3       1 ATP        -0.3662
     17 C3'         0.1338   -1.6715    1.4027 C.3       1 ATP         0.0734
     18 O3'         1.2893   -1.4445    2.1808 O.3       1 ATP        -0.5671
     19 C2'         0.2158   -1.0724    0.0128 C.3       1 ATP         0.0745
     20 O2'         1.5141   -1.2448   -0.5513 O.3       1 ATP        -0.5794
     21 C1'        -0.7897   -1.9176   -0.7583 C.3       1 ATP         0.3824
     22 N9         -2.1040   -1.3333   -0.7704 N.pl3     1 ATP        -0.4324
     23 C8         -3.0590   -1.5123    0.1363 C.ar      1 ATP         0.2662
     24 N7         -4.1655   -0.8354   -0.1554 N.pl3     1 ATP        -0.4772
     25 C5         -3.8852   -0.1874   -1.3253 C.ar      1 ATP        -0.1305
     26 C6         -4.7113    0.7160   -2.1458 C.ar      1 ATP         0.7186
     27 N6         -5.9213    1.0209   -1.8021 N.2       1 ATP        -0.8115
     28 N1         -4.0411    1.1673   -3.2764 N.pl3     1 ATP        -0.8400
     29 C2         -2.7403    0.7865   -3.5638 C.ar      1 ATP         0.6671
     30 N3         -1.9921   -0.0108   -2.8519 N.2       1 ATP        -0.5806
     31 C4         -2.6302   -0.4747   -1.7239 C.ar      1 ATP         0.2748
     32 HOG3        0.1561   -0.5840    9.0444 H         1 ATP         0.4327
     33 HOB2       -0.5500   -0.3566    4.3037 H         1 ATP         0.4701
     34 H5'1       -0.9348   -4.9415    1.9415 H         1 ATP         0.0401
     35 H5'2       -1.7548   -3.4350    2.4278 H         1 ATP         0.0401
     36 H4'         0.8874   -3.6466    0.8805 H         1 ATP         0.1136
     37 H3'        -0.7376   -1.2333    1.9867 H         1 ATP         0.0693
     38 HO3'        1.3408   -0.4870    2.3219 H         1 ATP         0.4124
     39 H2'        -0.0384   -0.0310    0.0096 H         1 ATP         0.0854
     40 HO2'        1.4998   -0.8412   -1.4369 H         1 ATP         0.4367
     41 H1'        -0.4769   -2.1002   -1.8093 H         1 ATP         0.1343
     42 H8         -2.9569   -2.1323    1.0098 H         1 ATP         0.3302
     43 HN62       -6.3169    1.6552   -2.5012 H         1 ATP         0.4160
     44 H2         -2.3612    1.2343   -4.4957 H         1 ATP         0.0756
     45 H45        -4.5223    1.7976   -3.9117 H         1 ATP         0.4587
     46 H46        -5.0218   -0.8132    0.3804 H         1 ATP         0.5254
@<TRIPOS>BOND
     1    1    2 2
     2    1    3 1
     3    1    4 1
     4    1    8 1
     5    4   32 1
     6    5    6 2
     7    5    7 1
     8    5    8 1
     9    5   12 1
    10    7   33 1
    11    9   10 2
    12    9   11 1
    13    9   12 1
    14    9   13 1
    15   13   14 1
    16   14   15 1
    17   14   34 1
    18   14   35 1
    19   15   16 1
    20   15   17 1
    21   15   36 1
    22   16   21 1
    23   17   18 1
    24   17   19 1
    25   17   37 1
    26   18   38 1
    27   19   20 1
    28   19   21 1
    29   19   39 1
    30   20   40 1
    31   21   22 1
    32   21   41 1
    33   22   23 ar
    34   22   31 ar
    35   23   24 ar
    36   23   42 1
    37   24   25 ar
    38   24   46 1
    39   25   26 ar
    40   25   31 ar
    41   26   27 2
    42   26   28 ar
    43   27   43 1
    44   28   29 ar
    45   28   45 1
    46   29   30 ar
    47   29   44 1
    48   30   31 ar
@<TRIPOS>SUBSTRUCTURE
     1 ATP         1 GROUP 0 A     ****
@<TRIPOS>MOLECULE
[[[3,4-dihydroxy-5-(6-imino-7,8-dihydro-1~{H}-purin-8-ylium-9-yl)tetrahydrofuran-2-yl]methoxy-oxido-phosphoryl]oxy-hydroxy-phosphoryl] hydrogen phosphate
   46    48     1     0     0
SMALL
USER_CHARGES

@<TRIPOS>ATOM
      1 PG         -1.8336   -3.3627    0.2560 P.3       1 ATP         1.5595
      2 O1G        -1.7887   -4.8737    0.3083 O.co2     1 ATP        -0.8438
      3 O2G        -2.7811   -2.5825    1.1397 O.co2     1 ATP        -0.8438
      4 O3G        -0.3214   -2.7910    0.4854 O.3       1 ATP        -0.7800
      5 PB         -1.2120   -3.2745   -2.6256 P.3       1 ATP         1.9223
      6 O1B        -1.1832   -4.7351   -2.9662 O.2       1 ATP        -0.8953
      7 O2B        -1.8520   -2.3185   -3.7614 O.3       1 ATP        -0.8165
      8 O3B        -2.0425   -2.8939   -1.2921 O.3       1 ATP        -0.8247
      9 PA          1.5543   -2.4556   -3.2404 P.3       1 ATP         1.6157
     10 O1A         1.2372   -1.5511   -4.4114 O.co2     1 ATP        -0.8629
     11 O2A         2.1275   -3.8380   -3.4641 O.co2     1 ATP        -0.8629
     12 O3A         0.2206   -2.5984   -2.3094 O.3       1 ATP        -0.8191
     13 O5'         2.5245   -1.6648   -2.1878 O.3       1 ATP        -0.5644
     14 C5'         2.2816   -0.2918   -1.9206 C.3       1 ATP         0.2062
     15 C4'         2.7248    0.0226   -0.4980 C.3       1 ATP         0.0971
     16 O4'         2.4697    1.4219   -0.2462 O.3       1 ATP        -0.3662
     17 C3'         1.9404   -0.7419    0.5596 C.3       1 ATP         0.0734
     18 O3'         2.7418   -0.8086    1.7389 O.3       1 ATP        -0.5671
     19 C2'         0.7477    0.1630    0.7858 C.3       1 ATP         0.0745
     20 O2'         0.1373   -0.0577    2.0407 O.3       1 ATP        -0.5794
     21 C1'         1.3733    1.5427    0.6747 C.3       1 ATP         0.3824
     22 N9          0.4520    2.5240    0.1767 N.pl3     1 ATP        -0.4324
     23 C8          0.5691    3.2215   -0.9485 C.ar      1 ATP         0.2662
     24 N7         -0.4499    4.0551   -1.1342 N.pl3     1 ATP        -0.4772
     25 C5         -1.2618    3.8674   -0.0512 C.ar      1 ATP        -0.1305
     26 C6         -2.5420    4.5007    0.3120 C.ar      1 ATP         0.7186
     27 N6         -3.0874    5.3993   -0.4432 N.2       1 ATP        -0.8115
     28 N1         -3.0494    4.0205    1.5133 N.pl3     1 ATP        -0.8400
     29 C2         -2.3933    3.0527    2.2567 C.ar      1 ATP         0.6671
     30 N3         -1.2611    2.4796    1.9536 N.2       1 ATP        -0.5806
     31 C4         -0.7334    2.9358    0.7669 C.ar      1 ATP         0.2748
     32 HOG3       -0.1837   -1.8198    0.4789 H         1 ATP         0.4327
     33 HOB2       -1.4385   -2.2957   -4.6507 H         1 ATP         0.4701
     34 H5'1        2.8432    0.3119   -2.6398 H         1 ATP         0.0401
     35 H5'2        1.2128   -0.0927   -2.0428 H         1 ATP         0.0401
     36 H4'         3.8044   -0.1397   -0.4040 H         1 ATP         0.1136
     37 H3'         1.6764   -1.7639    0.2728 H         1 ATP         0.0693
     38 HO3'        2.2232   -1.2979    2.3953 H         1 ATP         0.4124
     39 H2'        -0.0011    0.0027    0.0003 H         1 ATP         0.0854
     40 HO2'       -0.1563   -0.9855    2.0596 H         1 ATP         0.4367
     41 H1'         1.7826    1.9024    1.6451 H         1 ATP         0.1343
     42 H8          1.3912    3.1285   -1.6365 H         1 ATP         0.3302
     43 HN62       -3.9637    5.7084   -0.0142 H         1 ATP         0.4160
     44 H2         -2.9317    2.7866    3.1796 H         1 ATP         0.0756
     45 H45        -3.9307    4.3923    1.8559 H         1 ATP         0.4587
     46 H46        -0.5835    4.6857   -1.9122 H         1 ATP         0.5254
@<TRIPOS>BOND
     1    1    2 2
     2    1    3 1
     3    1    4 1
     4    1    8 1
     5    4   32 1
     6    5    6 2
     7    5    7 1
     8    5    8 1
     9    5   12 1
    10    7   33 1
    11    9   10 2
    12    9   11 1
    13    9   12 1
    14    9   13 1
    15   13   14 1
    16   14   15 1
    17   14   34 1
    18   14   35 1
    19   15   16 1
    20   15   17 1
    21   15   36 1
    22   16   21 1
    23   17   18 1
    24   17   19 1
    25   17   37 1
    26   18   38 1
    27   19   20 1
    28   19   21 1
    29   19   39 1
    30   20   40 1
    31   21   22 1
    32   21   41 1
    33   22   23 ar
    34   22   31 ar
    35   23   24 ar
    36   23   42 1
    37   24   25 ar
    38   24   46 1
    39   25   26 ar
    40   25   31 ar
    41   26   27 2
    42   26   28 ar
    43   27   43 1
    44   28   29 ar
    45   28   45 1
    46   29   30 ar
    47   29   44 1
    48   30   31 ar
@<TRIPOS>SUBSTRUCTURE
     1 ATP         1 GROUP 0 A     ****
@<TRIPOS>MOLECULE
[[[3,4-dihydroxy-5-(6-imino-7,8-dihydro-1~{H}-purin-8-ylium-9-yl)tetrahydrofuran-2-yl]methoxy-oxido-phosphoryl]oxy-hydroxy-phosphoryl] hydrogen phosphate
   46    48     1     0     0
SMALL
USER_CHARGES

@<TRIPOS>ATOM
      1 PG          1.2277    1.2678   -7.4440 P.3       1 ATP         1.5595
      2 O1G        -0.2817    1.2650   -7.5411 O.co2     1 ATP        -0.8438
      3 O2G         2.0748    1.8945   -8.5289 O.co2     1 ATP        -0.8438
      4 O3G         1.6536    1.9230   -6.0103 O.3       1 ATP        -0.7800
      5 PB          1.3127   -1.3309   -6.0520 P.3       1 ATP         1.9223
      6 O1B        -0.1377   -1.7137   -6.0528 O.2       1 ATP        -0.8953
      7 O2B         2.3448   -2.5552   -6.2746 O.3       1 ATP        -0.8165
      8 O3B         1.7428   -0.2572   -7.1812 O.3       1 ATP        -0.8247
      9 PA          3.3342   -0.0516   -4.3262 P.3       1 ATP         1.6157
     10 O1A         3.6725    1.1050   -5.2416 O.co2     1 ATP        -0.8629
     11 O2A         4.2676   -1.2358   -4.1991 O.co2     1 ATP        -0.8629
     12 O3A         1.8482   -0.6092   -4.7096 O.3       1 ATP        -0.8191
     13 O5'         3.0213    0.5153   -2.8245 O.3       1 ATP        -0.5644
     14 C5'         2.2816   -0.2918   -1.9206 C.3       1 ATP         0.2062
     15 C4'         2.7248    0.0226   -0.4980 C.3       1 ATP         0.0971
     16 O4'         2.4697    1.4219   -0.2462 O.3       1 ATP        -0.3662
     17 C3'         1.9404   -0.7419    0.5596 C.3       1 ATP         0.0734
     18 O3'         2.7418   -0.8086    1.7389 O.3       1 ATP        -0.5671
     19 C2'         0.7477    0.1630    0.7858 C.3       1 ATP         0.0745
     20 O2'         0.1373   -0.0577    2.0407 O.3       1 ATP        -0.5794
     21 C1'         1.3733    1.5427    0.6747 C.3       1 ATP         0.3824
     22 N9          0.4520    2.5240    0.1767 N.pl3     1 ATP        -0.4324
     23 C8          0.2216    2.8192   -1.0985 C.ar      1 ATP         0.2662
     24 N7         -0.6906    3.7763   -1.2384 N.pl3     1 ATP        -0.4772
     25 C5         -1.0575    4.1037    0.0366 C.ar      1 ATP        -0.1305
     26 C6         -2.0291    5.0943    0.5330 C.ar      1 ATP         0.7186
     27 N6         -2.7093    5.8371   -0.2800 N.2       1 ATP        -0.8115
     28 N1         -2.1051    5.1136    1.9204 N.pl3     1 ATP        -0.8400
     29 C2         -1.3354    4.2774    2.7129 C.ar      1 ATP         0.6671
     30 N3         -0.4707    3.3945    2.2944 N.2       1 ATP        -0.5806
     31 C4         -0.3734    3.3525    0.9220 C.ar      1 ATP         0.2748
     32 HOG3        1.3400    1.4901   -5.1878 H         1 ATP         0.4327
     33 HOB2        2.3462   -3.2972   -5.6330 H         1 ATP         0.4701
     34 H5'1        1.2163   -0.0770   -2.0471 H         1 ATP         0.0401
     35 H5'2        2.4655   -1.3443   -2.1563 H         1 ATP         0.0401
     36 H4'         3.8044   -0.1397   -0.4040 H         1 ATP         0.1136
     37 H3'         1.6764   -1.7639    0.2728 H         1 ATP         0.0693
     38 HO3'        2.2232   -1.2979    2.3953 H         1 ATP         0.4124
     39 H2'        -0.0011    0.0027    0.0003 H         1 ATP         0.0854
     40 HO2'       -0.6141    0.5574    2.1082 H         1 ATP         0.4367
     41 H1'         1.7826    1.9024    1.6451 H         1 ATP         0.1343
     42 H8          0.7125    2.3429   -1.9292 H         1 ATP         0.3302
     43 HN62       -3.3217    6.4517    0.2629 H         1 ATP         0.4160
     44 H2         -1.5188    4.4223    3.7890 H         1 ATP         0.0756
     45 H45        -2.7470    5.7627    2.3665 H         1 ATP         0.4587
     46 H46        -1.0305    4.1680   -2.1054 H         1 ATP         0.5254
@<TRIPOS>BOND
     1    1    2 2
     2    1    3 1
     3    1    4 1
     4    1    8 1
     5    4   32 1
     6    5    6 2
     7    5    7 1
     8    5    8 1
     9    5   12 1
    10    7   33 1
    11    9   10 2
    12    9   11 1
    13    9   12 1
    14    9   13 1
    15   13   14 1
    16   14   15 1
    17   14   34 1
    18   14   35 1
    19   15   16 1
    20   15   17 1
    21   15   36 1
    22   16   21 1
    23   17   18 1
    24   17   19 1
    25   17   37 1
    26   18   38 1
    27   19   20 1
    28   19   21 1
    29   19   39 1
    30   20   40 1
    31   21   22 1
    32   21   41 1
    33   22   23 ar
    34   22   31 ar
    35   23   24 ar
    36   23   42 1
    37   24   25 ar
    38   24   46 1
    39   25   26 ar
    40   25   31 ar
    41   26   27 2
    42   26   28 ar
    43   27   43 1
    44   28   29 ar
    45   28   45 1
    46   29   30 ar
    47   29   44 1
    48   30   31 ar
@<TRIPOS>SUBSTRUCTURE
     1 ATP         1 GROUP 0 A     ****
@<TRIPOS>MOLECULE
[[[3,4-dihydroxy-5-(6-imino-7,8-dihydro-1~{H}-purin-8-ylium-9-yl)tetrahydrofuran-2-yl]methoxy-oxido-phosphoryl]oxy-hydroxy-phosphoryl] hydrogen phosphate
   46    48     1     0     0
SMALL
USER_CHARGES

@<TRIPOS>ATOM
      1 PG          3.1841   -4.0549   -2.7264 P.3       1 ATP         1.5595
      2 O1G         3.2141   -3.8960   -1.2225 O.co2     1 ATP        -0.8438
      3 O2G         4.3643   -4.6399   -3.4695 O.co2     1 ATP        -0.8438
      4 O3G         1.8463   -4.8988   -3.1317 O.3       1 ATP        -0.7800
      5 PB          2.4639   -2.2413   -4.9377 P.3       1 ATP         1.9223
      6 O1B         3.5753   -2.5056   -5.9100 O.2       1 ATP        -0.8953
      7 O2B         1.0835   -3.0244   -5.2454 O.3       1 ATP        -0.8165
      8 O3B         2.7871   -2.6240   -3.4008 O.3       1 ATP        -0.8247
      9 PA          2.8619    0.6169   -4.3269 P.3       1 ATP         1.6157
     10 O1A         1.9202    1.7974   -4.2284 O.co2     1 ATP        -0.8629
     11 O2A         4.1141    0.6950   -5.1728 O.co2     1 ATP        -0.8629
     12 O3A         2.0115   -0.6976   -4.7905 O.3       1 ATP        -0.8191
     13 O5'         3.2903    0.1346   -2.8241 O.3       1 ATP        -0.5644
     14 C5'         2.2816   -0.2918   -1.9206 C.3       1 ATP         0.2062
     15 C4'         2.7248    0.0226   -0.4980 C.3       1 ATP         0.0971
     16 O4'         2.4697    1.4219   -0.2462 O.3       1 ATP        -0.3662
     17 C3'         1.9404   -0.7419    0.5596 C.3       1 ATP         0.0734
     18 O3'         2.7418   -0.8086    1.7389 O.3       1 ATP        -0.5671
     19 C2'         0.7477    0.1630    0.7858 C.3       1 ATP         0.0745
     20 O2'         0.1373   -0.0577    2.0407 O.3       1 ATP        -0.5794
     21 C1'         1.3733    1.5427    0.6747 C.3       1 ATP         0.3824
     22 N9          0.4520    2.5240    0.1767 N.pl3     1 ATP        -0.4324
     23 C8          0.5691    3.2215   -0.9485 C.ar      1 ATP         0.2662
     24 N7         -0.4499    4.0551   -1.1342 N.pl3     1 ATP        -0.4772
     25 C5         -1.2618    3.8674   -0.0512 C.ar      1 ATP        -0.1305
     26 C6         -2.5420    4.5007    0.3120 C.ar      1 ATP         0.7186
     27 N6         -3.0874    5.3993   -0.4432 N.2       1 ATP        -0.8115
     28 N1         -3.0494    4.0205    1.5133 N.pl3     1 ATP        -0.8400
     29 C2         -2.3933    3.0527    2.2567 C.ar      1 ATP         0.6671
     30 N3         -1.2611    2.4796    1.9536 N.2       1 ATP        -0.5806
     31 C4         -0.7334    2.9358    0.7669 C.ar      1 ATP         0.2748
     32 HOG3        1.6824   -5.0863   -4.0805 H         1 ATP         0.4327
     33 HOB2        0.6277   -2.8651   -6.0992 H         1 ATP         0.4701
     34 H5'1        1.3514    0.2330   -2.1577 H         1 ATP         0.0401
     35 H5'2        2.1280   -1.3678   -2.0460 H         1 ATP         0.0401
     36 H4'         3.8044   -0.1397   -0.4040 H         1 ATP         0.1136
     37 H3'         1.6764   -1.7639    0.2728 H         1 ATP         0.0693
     38 HO3'        3.5554   -1.2733    1.4914 H         1 ATP         0.4124
     39 H2'        -0.0011    0.0027    0.0003 H         1 ATP         0.0854
     40 HO2'       -0.1563   -0.9855    2.0596 H         1 ATP         0.4367
     41 H1'         1.7826    1.9024    1.6451 H         1 ATP         0.1343
     42 H8          1.3912    3.1285   -1.6365 H         1 ATP         0.3302
     43 HN62       -3.9637    5.7084   -0.0142 H         1 ATP         0.4160
     44 H2         -2.9317    2.7866    3.1796 H         1 ATP         0.0756
     45 H45        -3.9307    4.3923    1.8559 H         1 ATP         0.4587
     46 H46        -0.5835    4.6857   -1.9122 H         1 ATP         0.5254
@<TRIPOS>BOND
     1    1    2 2
     2    1    3 1
     3    1    4 1
     4    1    8 1
     5    4   32 1
     6    5    6 2
     7    5    7 1
     8    5    8 1
     9    5   12 1
    10    7   33 1
    11    9   10 2
    12    9   11 1
    13    9   12 1
    14    9   13 1
    15   13   14 1
    16   14   15 1
    17   14   34 1
    18   14   35 1
    19   15   16 1
    20   15   17 1
    21   15   36 1
    22   16   21 1
    23   17   18 1
    24   17   19 1
    25   17   37 1
    26   18   38 1
    27   19   20 1
    28   19   21 1
    29   19   39 1
    30   20   40 1
    31   21   22 1
    32   21   41 1
    33   22   23 ar
    34   22   31 ar
    35   23   24 ar
    36   23   42 1
    37   24   25 ar
    38   24   46 1
    39   25   26 ar
    40   25   31 ar
    41   26   27 2
    42   26   28 ar
    43   27   43 1
    44   28   29 ar
    45   28   45 1
    46   29   30 ar
    47   29   44 1
    48   30   31 ar
@<TRIPOS>SUBSTRUCTURE
     1 ATP         1 GROUP 0 A     ****
@<TRIPOS>MOLECULE
[[[3,4-dihydroxy-5-(6-imino-7,8-dihydro-1~{H}-purin-8-ylium-9-yl)tetrahydrofuran-2-yl]methoxy-oxido-phosphoryl]oxy-hydroxy-phosphoryl] hydrogen phosphate
   46    48     1     0     0
SMALL
USER_CHARGES

@<TRIPOS>ATOM
      1 PG          0.8362   -2.8208   -5.8609 P.3       1 ATP         1.5595
      2 O1G         1.2295   -4.2583   -5.6031 O.co2     1 ATP        -0.8438
      3 O2G        -0.4232   -2.4855   -6.6284 O.co2     1 ATP        -0.8438
      4 O3G         0.7991   -2.0296   -4.4330 O.3       1 ATP        -0.7800
      5 PB          3.6349   -1.9126   -6.0608 P.3       1 ATP         1.9223
      6 O1B         4.3762   -3.2103   -5.9315 O.2       1 ATP        -0.8953
      7 O2B         4.2757   -0.8584   -7.1056 O.3       1 ATP        -0.8165
      8 O3B         2.0972   -2.0421   -6.5418 O.3       1 ATP        -0.8247
      9 PA          2.7406    0.3767   -4.4296 P.3       1 ATP         1.6157
     10 O1A         1.2546    0.2225   -4.6703 O.co2     1 ATP        -0.8629
     11 O2A         3.5320    1.4518   -5.1421 O.co2     1 ATP        -0.8629
     12 O3A         3.4692   -1.0595   -4.6990 O.3       1 ATP        -0.8191
     13 O5'         3.0213    0.5153   -2.8245 O.3       1 ATP        -0.5644
     14 C5'         2.2816   -0.2918   -1.9206 C.3       1 ATP         0.2062
     15 C4'         2.7248    0.0226   -0.4980 C.3       1 ATP         0.0971
     16 O4'         2.4697    1.4219   -0.2462 O.3       1 ATP        -0.3662
     17 C3'         1.9404   -0.7419    0.5596 C.3       1 ATP         0.0734
     18 O3'         2.7418   -0.8086    1.7389 O.3       1 ATP        -0.5671
     19 C2'         0.7477    0.1630    0.7858 C.3       1 ATP         0.0745
     20 O2'         0.1373   -0.0577    2.0407 O.3       1 ATP        -0.5794
     21 C1'         1.3733    1.5427    0.6747 C.3       1 ATP         0.3824
     22 N9          0.4520    2.5240    0.1767 N.pl3     1 ATP        -0.4324
     23 C8         -0.2004    2.4829   -0.9804 C.ar      1 ATP         0.2662
     24 N7         -0.9830    3.5431   -1.1568 N.pl3     1 ATP        -0.4772
     25 C5         -0.8095    4.3012   -0.0331 C.ar      1 ATP        -0.1305
     26 C6         -1.4065    5.5904    0.3585 C.ar      1 ATP         0.7186
     27 N6         -2.2501    6.2030   -0.4084 N.2       1 ATP        -0.8115
     28 N1         -0.9585    6.0272    1.5994 N.pl3     1 ATP        -0.8400
     29 C2         -0.0508    5.3009    2.3532 C.ar      1 ATP         0.6671
     30 N3          0.4890    4.1592    2.0257 N.2       1 ATP        -0.5806
     31 C4          0.0637    3.7006    0.7995 C.ar      1 ATP         0.2748
     32 HOG3        1.6235   -1.9836   -3.9033 H         1 ATP         0.4327
     33 HOB2        5.1905   -0.5378   -6.9554 H         1 ATP         0.4701
     34 H5'1        1.2163   -0.0770   -2.0471 H         1 ATP         0.0401
     35 H5'2        2.4655   -1.3443   -2.1563 H         1 ATP         0.0401
     36 H4'         3.8044   -0.1397   -0.4040 H         1 ATP         0.1136
     37 H3'         1.6764   -1.7639    0.2728 H         1 ATP         0.0693
     38 HO3'        2.2232   -1.2979    2.3953 H         1 ATP         0.4124
     39 H2'        -0.0011    0.0027    0.0003 H         1 ATP         0.0854
     40 HO2'       -0.1563   -0.9855    2.0596 H         1 ATP         0.4367
     41 H1'         1.7826    1.9024    1.6451 H         1 ATP         0.1343
     42 H8         -0.1116    1.6863   -1.6984 H         1 ATP         0.3302
     43 HN62       -2.5420    7.0730    0.0447 H         1 ATP         0.4160
     44 H2          0.1969    5.7893    3.3086 H         1 ATP         0.0756
     45 H45        -1.3097    6.9080    1.9642 H         1 ATP         0.4587
     46 H46        -1.5735    3.7351   -1.9538 H         1 ATP         0.5254
@<TRIPOS>BOND
     1    1    2 2
     2    1    3 1
     3    1    4 1
     4    1    8 1
     5    4   32 1
     6    5    6 2
     7    5    7 1
     8    5    8 1
     9    5   12 1
    10    7   33 1
    11    9   10 2
    12    9   11 1
    13    9   12 1
    14    9   13 1
    15   13   14 1
    16   14   15 1
    17   14   34 1
    18   14   35 1
    19   15   16 1
    20   15   17 1
    21   15   36 1
    22   16   21 1
    23   17   18 1
    24   17   19 1
    25   17   37 1
    26   18   38 1
    27   19   20 1
    28   19   21 1
    29   19   39 1
    30   20   40 1
    31   21   22 1
    32   21   41 1
    33   22   23 ar
    34   22   31 ar
    35   23   24 ar
    36   23   42 1
    37   24   25 ar
    38   24   46 1
    39   25   26 ar
    40   25   31 ar
    41   26   27 2
    42   26   28 ar
    43   27   43 1
    44   28   29 ar
    45   28   45 1
    46   29   30 ar
    47   29   44 1
    48   30   31 ar
@<TRIPOS>SUBSTRUCTURE
     1 ATP         1 GROUP 0 A     ****
@<TRIPOS>MOLECULE
[[[3,4-dihydroxy-5-(6-imino-7,8-dihydro-1~{H}-purin-8-ylium-9-yl)tetrahydrofuran-2-yl]methoxy-oxido-phosphoryl]oxy-hydroxy-phosphoryl] hydrogen phosphate
   46    48     1     0     0
SMALL
USER_CHARGES

@<TRIPOS>ATOM
      1 PG          7.8130    2.4320   -2.8835 P.3       1 ATP         1.5595
      2 O1G         9.1662    1.9057   -2.4596 O.co2     1 ATP        -0.8438
      3 O2G         7.1018    3.4908   -2.0707 O.co2     1 ATP        -0.8438
      4 O3G         7.9188    2.9488   -4.4288 O.3       1 ATP        -0.7800
      5 PB          6.1907    0.1115   -2.0583 P.3       1 ATP         1.9223
      6 O1B         7.2025   -0.7047   -1.3098 O.2       1 ATP        -0.8953
      7 O2B         5.2168    1.0116   -1.1337 O.3       1 ATP        -0.8165
      8 O3B         6.8043    1.1712   -3.1134 O.3       1 ATP        -0.8247
      9 PA          3.9552   -0.2066   -3.9564 P.3       1 ATP         1.6157
     10 O1A         3.2311   -1.4130   -4.5133 O.co2     1 ATP        -0.8629
     11 O2A         4.4938    0.8658   -4.8783 O.co2     1 ATP        -0.8629
     12 O3A         5.1749   -0.7199   -2.9999 O.3       1 ATP        -0.8191
     13 O5'         3.0213    0.5153   -2.8245 O.3       1 ATP        -0.5644
     14 C5'         2.2816   -0.2918   -1.9206 C.3       1 ATP         0.2062
     15 C4'         2.7248    0.0226   -0.4980 C.3       1 ATP         0.0971
     16 O4'         2.4697    1.4219   -0.2462 O.3       1 ATP        -0.3662
     17 C3'         1.9404   -0.7419    0.5596 C.3       1 ATP         0.0734
     18 O3'         2.7418   -0.8086    1.7389 O.3       1 ATP        -0.5671
     19 C2'         0.7477    0.1630    0.7858 C.3       1 ATP         0.0745
     20 O2'         0.1373   -0.0577    2.0407 O.3       1 ATP        -0.5794
     21 C1'         1.3733    1.5427    0.6747 C.3       1 ATP         0.3824
     22 N9          0.4520    2.5240    0.1767 N.pl3     1 ATP        -0.4324
     23 C8          0.2216    2.8192   -1.0985 C.ar      1 ATP         0.2662
     24 N7         -0.6906    3.7763   -1.2384 N.pl3     1 ATP        -0.4772
     25 C5         -1.0575    4.1037    0.0366 C.ar      1 ATP        -0.1305
     26 C6         -2.0291    5.0943    0.5330 C.ar      1 ATP         0.7186
     27 N6         -2.7093    5.8371   -0.2800 N.2       1 ATP        -0.8115
     28 N1         -2.1051    5.1136    1.9204 N.pl3     1 ATP        -0.8400
     29 C2         -1.3354    4.2774    2.7129 C.ar      1 ATP         0.6671
     30 N3         -0.4707    3.3945    2.2944 N.2       1 ATP        -0.5806
     31 C4         -0.3734    3.3525    0.9220 C.ar      1 ATP         0.2748
     32 HOG3        7.1164    3.3217   -4.8522 H         1 ATP         0.4327
     33 HOB2        5.6131    1.6932   -0.5501 H         1 ATP         0.4701
     34 H5'1        1.2163   -0.0770   -2.0471 H         1 ATP         0.0401
     35 H5'2        2.4655   -1.3443   -2.1563 H         1 ATP         0.0401
     36 H4'         3.8044   -0.1397   -0.4040 H         1 ATP         0.1136
     37 H3'         1.6764   -1.7639    0.2728 H         1 ATP         0.0693
     38 HO3'        2.2232   -1.2979    2.3953 H         1 ATP         0.4124
     39 H2'        -0.0011    0.0027    0.0003 H         1 ATP         0.0854
     40 HO2'       -0.6141    0.5574    2.1082 H         1 ATP         0.4367
     41 H1'         1.7826    1.9024    1.6451 H         1 ATP         0.1343
     42 H8          0.7125    2.3429   -1.9292 H         1 ATP         0.3302
     43 HN62       -3.3217    6.4517    0.2629 H         1 ATP         0.4160
     44 H2         -1.5188    4.4223    3.7890 H         1 ATP         0.0756
     45 H45        -2.7470    5.7627    2.3665 H         1 ATP         0.4587
     46 H46        -1.0305    4.1680   -2.1054 H         1 ATP         0.5254
@<TRIPOS>BOND
     1    1    2 2
     2    1    3 1
     3    1    4 1
     4    1    8 1
     5    4   32 1
     6    5    6 2
     7    5    7 1
     8    5    8 1
     9    5   12 1
    10    7   33 1
    11    9   10 2
    12    9   11 1
    13    9   12 1
    14    9   13 1
    15   13   14 1
    16   14   15 1
    17   14   34 1
    18   14   35 1
    19   15   16 1
    20   15   17 1
    21   15   36 1
    22   16   21 1
    23   17   18 1
    24   17   19 1
    25   17   37 1
    26   18   38 1
    27   19   20 1
    28   19   21 1
    29   19   39 1
    30   20   40 1
    31   21   22 1
    32   21   41 1
    33   22   23 ar
    34   22   31 ar
    35   23   24 ar
    36   23   42 1
    37   24   25 ar
    38   24   46 1
    39   25   26 ar
    40   25   31 ar
    41   26   27 2
    42   26   28 ar
    43   27   43 1
    44   28   29 ar
    45   28   45 1
    46   29   30 ar
    47   29   44 1
    48   30   31 ar
@<TRIPOS>SUBSTRUCTURE
     1 ATP         1 GROUP 0 A     ****
@<TRIPOS>MOLECULE
[[[3,4-dihydroxy-5-(6-imino-7,8-dihydro-1~{H}-purin-8-ylium-9-yl)tetrahydrofuran-2-yl]methoxy-oxido-phosphoryl]oxy-hydroxy-phosphoryl] hydrogen phosphate
   46    48     1     0     0
SMALL
USER_CHARGES

@<TRIPOS>ATOM
      1 PG         -0.0076   -5.6229   -3.9153 P.3       1 ATP         1.5595
      2 O1G        -1.4521   -5.7023   -4.3566 O.co2     1 ATP        -0.8438
      3 O2G         0.7873   -6.8773   -3.6287 O.co2     1 ATP        -0.8438
      4 O3G         0.8170   -4.7232   -5.0001 O.3       1 ATP        -0.7800
      5 PB         -0.4192   -3.1020   -2.4410 P.3       1 ATP         1.9223
      6 O1B        -1.8978   -2.9052   -2.6000 O.2       1 ATP        -0.8953
      7 O2B         0.1786   -2.6722   -1.0017 O.3       1 ATP        -0.8165
      8 O3B         0.0985   -4.6213   -2.6325 O.3       1 ATP        -0.8247
      9 PA          2.1371   -2.2715   -3.6563 P.3       1 ATP         1.6157
     10 O1A         2.4976   -1.2664   -4.7285 O.co2     1 ATP        -0.8629
     11 O2A         2.6455   -3.6950   -3.7283 O.co2     1 ATP        -0.8629
     12 O3A         0.5123   -2.3150   -3.5004 O.3       1 ATP        -0.8191
     13 O5'         2.5245   -1.6648   -2.1878 O.3       1 ATP        -0.5644
     14 C5'         2.2816   -0.2918   -1.9206 C.3       1 ATP         0.2062
     15 C4'         2.7248    0.0226   -0.4980 C.3       1 ATP         0.0971
     16 O4'         2.4697    1.4219   -0.2462 O.3       1 ATP        -0.3662
     17 C3'         1.9404   -0.7419    0.5596 C.3       1 ATP         0.0734
     18 O3'         2.7418   -0.8086    1.7389 O.3       1 ATP        -0.5671
     19 C2'         0.7477    0.1630    0.7858 C.3       1 ATP         0.0745
     20 O2'         0.1373   -0.0577    2.0407 O.3       1 ATP        -0.5794
     21 C1'         1.3733    1.5427    0.6747 C.3       1 ATP         0.3824
     22 N9          0.4520    2.5240    0.1767 N.pl3     1 ATP        -0.4324
     23 C8          0.2216    2.8192   -1.0985 C.ar      1 ATP         0.2662
     24 N7         -0.6906    3.7763   -1.2384 N.pl3     1 ATP        -0.4772
     25 C5         -1.0575    4.1037    0.0366 C.ar      1 ATP        -0.1305
     26 C6         -2.0291    5.0943    0.5330 C.ar      1 ATP         0.7186
     27 N6         -2.7093    5.8371   -0.2800 N.2       1 ATP        -0.8115
     28 N1         -2.1051    5.1136    1.9204 N.pl3     1 ATP        -0.8400
     29 C2         -1.3354    4.2774    2.7129 C.ar      1 ATP         0.6671
     30 N3         -0.4707    3.3945    2.2944 N.2       1 ATP        -0.5806
     31 C4         -0.3734    3.3525    0.9220 C.ar      1 ATP         0.2748
     32 HOG3        0.8453   -5.0264   -5.9326 H         1 ATP         0.4327
     33 HOB2       -0.1579   -3.1187   -0.1957 H         1 ATP         0.4701
     34 H5'1        2.8432    0.3119   -2.6398 H         1 ATP         0.0401
     35 H5'2        1.2128   -0.0927   -2.0428 H         1 ATP         0.0401
     36 H4'         3.8044   -0.1397   -0.4040 H         1 ATP         0.1136
     37 H3'         1.6764   -1.7639    0.2728 H         1 ATP         0.0693
     38 HO3'        3.5554   -1.2733    1.4914 H         1 ATP         0.4124
     39 H2'        -0.0011    0.0027    0.0003 H         1 ATP         0.0854
     40 HO2'       -0.6141    0.5574    2.1082 H         1 ATP         0.4367
     41 H1'         1.7826    1.9024    1.6451 H         1 ATP         0.1343
     42 H8          0.7125    2.3429   -1.9292 H         1 ATP         0.3302
     43 HN62       -3.3217    6.4517    0.2629 H         1 ATP         0.4160
     44 H2         -1.5188    4.4223    3.7890 H         1 ATP         0.0756
     45 H45        -2.7470    5.7627    2.3665 H         1 ATP         0.4587
     46 H46        -1.0305    4.1680   -2.1054 H         1 ATP         0.5254
@<TRIPOS>BOND
     1    1    2 2
     2    1    3 1
     3    1    4 1
     4    1    8 1
     5    4   32 1
     6    5    6 2
     7    5    7 1
     8    5    8 1
     9    5   12 1
    10    7   33 1
    11    9   10 2
    12    9   11 1
    13    9   12 1
    14    9   13 1
    15   13   14 1
    16   14   15 1
    17   14   34 1
    18   14   35 1
    19   15   16 1
    20   15   17 1
    21   15   36 1
    22   16   21 1
    23   17   18 1
    24   17   19 1
    25   17   37 1
    26   18   38 1
    27   19   20 1
    28   19   21 1
    29   19   39 1
    30   20   40 1
    31   21   22 1
    32   21   41 1
    33   22   23 ar
    34   22   31 ar
    35   23   24 ar
    36   23   42 1
    37   24   25 ar
    38   24   46 1
    39   25   26 ar
    40   25   31 ar
    41   26   27 2
    42   26   28 ar
    43   27   43 1
    44   28   29 ar
    45   28   45 1
    46   29   30 ar
    47   29   44 1
    48   30   31 ar
@<TRIPOS>SUBSTRUCTURE
     1 ATP         1 GROUP 0 A     ****
@<TRIPOS>MOLECULE
[[[3,4-dihydroxy-5-(6-imino-7,8-dihydro-1~{H}-purin-8-ylium-9-yl)tetrahydrofuran-2-yl]methoxy-oxido-phosphoryl]oxy-hydroxy-phosphoryl] hydrogen phosphate
   46    48     1     0     0
SMALL
USER_CHARGES

@<TRIPOS>ATOM
      1 PG          3.9833   -4.2409   -0.2985 P.3       1 ATP         1.5595
      2 O1G         3.1223   -5.3616   -0.8373 O.co2     1 ATP        -0.8438
      3 O2G         3.3794   -2.9023    0.0634 O.co2     1 ATP        -0.8438
      4 O3G         4.8149   -4.8000    0.9907 O.3       1 ATP        -0.7800
      5 PB          5.2647   -3.4496   -2.8342 P.3       1 ATP         1.9223
      6 O1B         6.6262   -3.3654   -3.4586 O.2       1 ATP        -0.8953
      7 O2B         4.2135   -4.4030   -3.6084 O.3       1 ATP        -0.8165
      8 O3B         5.2360   -4.0017   -1.3153 O.3       1 ATP        -0.8247
      9 PA          4.0008   -0.9665   -3.8026 P.3       1 ATP         1.6157
     10 O1A         2.9520   -1.6091   -4.6841 O.co2     1 ATP        -0.8629
     11 O2A         5.2365   -0.3346   -4.4057 O.co2     1 ATP        -0.8629
     12 O3A         4.4765   -2.0485   -2.6761 O.3       1 ATP        -0.8191
     13 O5'         3.2903    0.1346   -2.8241 O.3       1 ATP        -0.5644
     14 C5'         2.2816   -0.2918   -1.9206 C.3       1 ATP         0.2062
     15 C4'         2.7248    0.0226   -0.4980 C.3       1 ATP         0.0971
     16 O4'         2.4697    1.4219   -0.2462 O.3       1 ATP        -0.3662
     17 C3'         1.9404   -0.7419    0.5596 C.3       1 ATP         0.0734
     18 O3'         2.7418   -0.8086    1.7389 O.3       1 ATP        -0.5671
     19 C2'         0.7477    0.1630    0.7858 C.3       1 ATP         0.0745
     20 O2'         0.1373   -0.0577    2.0407 O.3       1 ATP        -0.5794
     21 C1'         1.3733    1.5427    0.6747 C.3       1 ATP         0.3824
     22 N9          0.4520    2.5240    0.1767 N.pl3     1 ATP        -0.4324
     23 C8          0.2216    2.8192   -1.0985 C.ar      1 ATP         0.2662
     24 N7         -0.6906    3.7763   -1.2384 N.pl3     1 ATP        -0.4772
     25 C5         -1.0575    4.1037    0.0366 C.ar      1 ATP        -0.1305
     26 C6         -2.0291    5.0943    0.5330 C.ar      1 ATP         0.7186
     27 N6         -2.7093    5.8371   -0.2800 N.2       1 ATP        -0.8115
     28 N1         -2.1051    5.1136    1.9204 N.pl3     1 ATP        -0.8400
     29 C2         -1.3354    4.2774    2.7129 C.ar      1 ATP         0.6671
     30 N3         -0.4707    3.3945    2.2944 N.2       1 ATP        -0.5806
     31 C4         -0.3734    3.3525    0.9220 C.ar      1 ATP         0.2748
     32 HOG3        5.4234   -4.1869    1.4553 H         1 ATP         0.4327
     33 HOB2        4.4280   -5.3538   -3.7197 H         1 ATP         0.4701
     34 H5'1        1.3514    0.2330   -2.1577 H         1 ATP         0.0401
     35 H5'2        2.1280   -1.3678   -2.0460 H         1 ATP         0.0401
     36 H4'         3.8044   -0.1397   -0.4040 H         1 ATP         0.1136
     37 H3'         1.6764   -1.7639    0.2728 H         1 ATP         0.0693
     38 HO3'        3.5554   -1.2733    1.4914 H         1 ATP         0.4124
     39 H2'        -0.0011    0.0027    0.0003 H         1 ATP         0.0854
     40 HO2'        0.8082    0.1199    2.7232 H         1 ATP         0.4367
     41 H1'         1.7826    1.9024    1.6451 H         1 ATP         0.1343
     42 H8          0.7125    2.3429   -1.9292 H         1 ATP         0.3302
     43 HN62       -3.3217    6.4517    0.2629 H         1 ATP         0.4160
     44 H2         -1.5188    4.4223    3.7890 H         1 ATP         0.0756
     45 H45        -2.7470    5.7627    2.3665 H         1 ATP         0.4587
     46 H46        -1.0305    4.1680   -2.1054 H         1 ATP         0.5254
@<TRIPOS>BOND
     1    1    2 2
     2    1    3 1
     3    1    4 1
     4    1    8 1
     5    4   32 1
     6    5    6 2
     7    5    7 1
     8    5    8 1
     9    5   12 1
    10    7   33 1
    11    9   10 2
    12    9   11 1
    13    9   12 1
    14    9   13 1
    15   13   14 1
    16   14   15 1
    17   14   34 1
    18   14   35 1
    19   15   16 1
    20   15   17 1
    21   15   36 1
    22   16   21 1
    23   17   18 1
    24   17   19 1
    25   17   37 1
    26   18   38 1
    27   19   20 1
    28   19   21 1
    29   19   39 1
    30   20   40 1
    31   21   22 1
    32   21   41 1
    33   22   23 ar
    34   22   31 ar
    35   23   24 ar
    36   23   42 1
    37   24   25 ar
    38   24   46 1
    39   25   26 ar
    40   25   31 ar
    41   26   27 2
    42   26   28 ar
    43   27   43 1
    44   28   29 ar
    45   28   45 1
    46   29   30 ar
    47   29   44 1
    48   30   31 ar
@<TRIPOS>SUBSTRUCTURE
     1 ATP         1 GROUP 0 A     ****
@<TRIPOS>MOLECULE
[[[3,4-dihydroxy-5-(6-imino-7,8-dihydro-1~{H}-purin-8-ylium-9-yl)tetrahydrofuran-2-yl]methoxy-oxido-phosphoryl]oxy-hydroxy-phosphoryl] hydrogen phosphate
   46    48     1     0     0
SMALL
USER_CHARGES

@<TRIPOS>ATOM
      1 PG         -0.9030   -4.8275   -4.0077 P.3       1 ATP         1.5595
      2 O1G         0.2024   -4.6798   -5.0295 O.co2     1 ATP        -0.8438
      3 O2G        -2.3564   -4.7467   -4.4182 O.co2     1 ATP        -0.8438
      4 O3G        -0.6715   -6.2229   -3.1920 O.3       1 ATP        -0.7800
      5 PB         -0.6717   -2.1645   -2.7617 P.3       1 ATP         1.9223
      6 O1B        -1.9865   -1.5477   -3.1375 O.2       1 ATP        -0.8953
      7 O2B        -0.1379   -1.7919   -1.2820 O.3       1 ATP        -0.8165
      8 O3B        -0.6363   -3.7803   -2.7861 O.3       1 ATP        -0.8247
      9 PA          2.1371   -2.2715   -3.6563 P.3       1 ATP         1.6157
     10 O1A         2.9134   -1.5359   -4.7268 O.co2     1 ATP        -0.8629
     11 O2A         2.1801   -3.7817   -3.5697 O.co2     1 ATP        -0.8629
     12 O3A         0.5735   -1.8066   -3.7266 O.3       1 ATP        -0.8191
     13 O5'         2.5245   -1.6648   -2.1878 O.3       1 ATP        -0.5644
     14 C5'         2.2816   -0.2918   -1.9206 C.3       1 ATP         0.2062
     15 C4'         2.7248    0.0226   -0.4980 C.3       1 ATP         0.0971
     16 O4'         2.4697    1.4219   -0.2462 O.3       1 ATP        -0.3662
     17 C3'         1.9404   -0.7419    0.5596 C.3       1 ATP         0.0734
     18 O3'         2.7418   -0.8086    1.7389 O.3       1 ATP        -0.5671
     19 C2'         0.7477    0.1630    0.7858 C.3       1 ATP         0.0745
     20 O2'         0.1373   -0.0577    2.0407 O.3       1 ATP        -0.5794
     21 C1'         1.3733    1.5427    0.6747 C.3       1 ATP         0.3824
     22 N9          0.4520    2.5240    0.1767 N.pl3     1 ATP        -0.4324
     23 C8         -0.2004    2.4829   -0.9804 C.ar      1 ATP         0.2662
     24 N7         -0.9830    3.5431   -1.1568 N.pl3     1 ATP        -0.4772
     25 C5         -0.8095    4.3012   -0.0331 C.ar      1 ATP        -0.1305
     26 C6         -1.4065    5.5904    0.3585 C.ar      1 ATP         0.7186
     27 N6         -2.2501    6.2030   -0.4084 N.2       1 ATP        -0.8115
     28 N1         -0.9585    6.0272    1.5994 N.pl3     1 ATP        -0.8400
     29 C2         -0.0508    5.3009    2.3532 C.ar      1 ATP         0.6671
     30 N3          0.4890    4.1592    2.0257 N.2       1 ATP        -0.5806
     31 C4          0.0637    3.7006    0.7995 C.ar      1 ATP         0.2748
     32 HOG3       -1.3112   -6.4639   -2.4884 H         1 ATP         0.4327
     33 HOB2       -0.6866   -2.0320   -0.5051 H         1 ATP         0.4701
     34 H5'1        2.8432    0.3119   -2.6398 H         1 ATP         0.0401
     35 H5'2        1.2128   -0.0927   -2.0428 H         1 ATP         0.0401
     36 H4'         3.8044   -0.1397   -0.4040 H         1 ATP         0.1136
     37 H3'         1.6764   -1.7639    0.2728 H         1 ATP         0.0693
     38 HO3'        3.5554   -1.2733    1.4914 H         1 ATP         0.4124
     39 H2'        -0.0011    0.0027    0.0003 H         1 ATP         0.0854
     40 HO2'       -0.6141    0.5574    2.1082 H         1 ATP         0.4367
     41 H1'         1.7826    1.9024    1.6451 H         1 ATP         0.1343
     42 H8         -0.1116    1.6863   -1.6984 H         1 ATP         0.3302
     43 HN62       -2.5420    7.0730    0.0447 H         1 ATP         0.4160
     44 H2          0.1969    5.7893    3.3086 H         1 ATP         0.0756
     45 H45        -1.3097    6.9080    1.9642 H         1 ATP         0.4587
     46 H46        -1.5735    3.7351   -1.9538 H         1 ATP         0.5254
@<TRIPOS>BOND
     1    1    2 2
     2    1    3 1
     3    1    4 1
     4    1    8 1
     5    4   32 1
     6    5    6 2
     7    5    7 1
     8    5    8 1
     9    5   12 1
    10    7   33 1
    11    9   10 2
    12    9   11 1
    13    9   12 1
    14    9   13 1
    15   13   14 1
    16   14   15 1
    17   14   34 1
    18   14   35 1
    19   15   16 1
    20   15   17 1
    21   15   36 1
    22   16   21 1
    23   17   18 1
    24   17   19 1
    25   17   37 1
    26   18   38 1
    27   19   20 1
    28   19   21 1
    29   19   39 1
    30   20   40 1
    31   21   22 1
    32   21   41 1
    33   22   23 ar
    34   22   31 ar
    35   23   24 ar
    36   23   42 1
    37   24   25 ar
    38   24   46 1
    39   25   26 ar
    40   25   31 ar
    41   26   27 2
    42   26   28 ar
    43   27   43 1
    44   28   29 ar
    45   28   45 1
    46   29   30 ar
    47   29   44 1
    48   30   31 ar
@<TRIPOS>SUBSTRUCTURE
     1 ATP         1 GROUP 0 A     ****
@<TRIPOS>MOLECULE
[[[3,4-dihydroxy-5-(6-imino-7,8-dihydro-1~{H}-purin-8-ylium-9-yl)tetrahydrofuran-2-yl]methoxy-oxido-phosphoryl]oxy-hydroxy-phosphoryl] hydrogen phosphate
   46    48     1     0     0
SMALL
USER_CHARGES

@<TRIPOS>ATOM
      1 PG          6.3846   -0.2202   -0.4329 P.3       1 ATP         1.5595
      2 O1G         5.4612    0.0566    0.7326 O.co2     1 ATP        -0.8438
      3 O2G         7.5078    0.7323   -0.7775 O.co2     1 ATP        -0.8438
      4 O3G         7.0113   -1.7173   -0.2534 O.3       1 ATP        -0.7800
      5 PB          5.9205   -0.9718   -3.2467 P.3       1 ATP         1.9223
      6 O1B         6.8878   -0.0710   -3.9561 O.2       1 ATP        -0.8953
      7 O2B         6.4364   -2.4866   -3.0175 O.3       1 ATP        -0.8165
      8 O3B         5.4856   -0.4873   -1.7672 O.3       1 ATP        -0.8247
      9 PA          3.3342   -0.0516   -4.3262 P.3       1 ATP         1.6157
     10 O1A         2.1153   -0.7748   -4.8565 O.co2     1 ATP        -0.8629
     11 O2A         3.9830    1.0583   -5.1244 O.co2     1 ATP        -0.8629
     12 O3A         4.4805   -1.1538   -3.9557 O.3       1 ATP        -0.8191
     13 O5'         3.0213    0.5153   -2.8245 O.3       1 ATP        -0.5644
     14 C5'         2.2816   -0.2918   -1.9206 C.3       1 ATP         0.2062
     15 C4'         2.7248    0.0226   -0.4980 C.3       1 ATP         0.0971
     16 O4'         2.4697    1.4219   -0.2462 O.3       1 ATP        -0.3662
     17 C3'         1.9404   -0.7419    0.5596 C.3       1 ATP         0.0734
     18 O3'         2.7418   -0.8086    1.7389 O.3       1 ATP        -0.5671
     19 C2'         0.7477    0.1630    0.7858 C.3       1 ATP         0.0745
     20 O2'         0.1373   -0.0577    2.0407 O.3       1 ATP        -0.5794
     21 C1'         1.3733    1.5427    0.6747 C.3       1 ATP         0.3824
     22 N9          0.4520    2.5240    0.1767 N.pl3     1 ATP        -0.4324
     23 C8          0.2216    2.8192   -1.0985 C.ar      1 ATP         0.2662
     24 N7         -0.6906    3.7763   -1.2384 N.pl3     1 ATP        -0.4772
     25 C5         -1.0575    4.1037    0.0366 C.ar      1 ATP        -0.1305
     26 C6         -2.0291    5.0943    0.5330 C.ar      1 ATP         0.7186
     27 N6         -2.7093    5.8371   -0.2800 N.2       1 ATP        -0.8115
     28 N1         -2.1051    5.1136    1.9204 N.pl3     1 ATP        -0.8400
     29 C2         -1.3354    4.2774    2.7129 C.ar      1 ATP         0.6671
     30 N3         -0.4707    3.3945    2.2944 N.2       1 ATP        -0.5806
     31 C4         -0.3734    3.3525    0.9220 C.ar      1 ATP         0.2748
     32 HOG3        6.3955   -2.4802   -0.2215 H         1 ATP         0.4327
     33 HOB2        7.2515   -2.6360   -2.4926 H         1 ATP         0.4701
     34 H5'1        1.2163   -0.0770   -2.0471 H         1 ATP         0.0401
     35 H5'2        2.4655   -1.3443   -2.1563 H         1 ATP         0.0401
     36 H4'         3.8044   -0.1397   -0.4040 H         1 ATP         0.1136
     37 H3'         1.6764   -1.7639    0.2728 H         1 ATP         0.0693
     38 HO3'        3.5554   -1.2733    1.4914 H         1 ATP         0.4124
     39 H2'        -0.0011    0.0027    0.0003 H         1 ATP         0.0854
     40 HO2'       -0.1563   -0.9855    2.0596 H         1 ATP         0.4367
     41 H1'         1.7826    1.9024    1.6451 H         1 ATP         0.1343
     42 H8          0.7125    2.3429   -1.9292 H         1 ATP         0.3302
     43 HN62       -3.3217    6.4517    0.2629 H         1 ATP         0.4160
     44 H2         -1.5188    4.4223    3.7890 H         1 ATP         0.0756
     45 H45        -2.7470    5.7627    2.3665 H         1 ATP         0.4587
     46 H46        -1.0305    4.1680   -2.1054 H         1 ATP         0.5254
@<TRIPOS>BOND
     1    1    2 2
     2    1    3 1
     3    1    4 1
     4    1    8 1
     5    4   32 1
     6    5    6 2
     7    5    7 1
     8    5    8 1
     9    5   12 1
    10    7   33 1
    11    9   10 2
    12    9   11 1
    13    9   12 1
    14    9   13 1
    15   13   14 1
    16   14   15 1
    17   14   34 1
    18   14   35 1
    19   15   16 1
    20   15   17 1
    21   15   36 1
    22   16   21 1
    23   17   18 1
    24   17   19 1
    25   17   37 1
    26   18   38 1
    27   19   20 1
    28   19   21 1
    29   19   39 1
    30   20   40 1
    31   21   22 1
    32   21   41 1
    33   22   23 ar
    34   22   31 ar
    35   23   24 ar
    36   23   42 1
    37   24   25 ar
    38   24   46 1
    39   25   26 ar
    40   25   31 ar
    41   26   27 2
    42   26   28 ar
    43   27   43 1
    44   28   29 ar
    45   28   45 1
    46   29   30 ar
    47   29   44 1
    48   30   31 ar
@<TRIPOS>SUBSTRUCTURE
     1 ATP         1 GROUP 0 A     ****
@<TRIPOS>MOLECULE
[[[3,4-dihydroxy-5-(6-imino-7,8-dihydro-1~{H}-purin-8-ylium-9-yl)tetrahydrofuran-2-yl]methoxy-oxido-phosphoryl]oxy-hydroxy-phosphoryl] hydrogen phosphate
   46    48     1     0     0
SMALL
USER_CHARGES

@<TRIPOS>ATOM
      1 PG         -2.2707    1.6310   -5.9266 P.3       1 ATP         1.5595
      2 O1G        -3.2949    2.3919   -5.1143 O.co2     1 ATP        -0.8438
      3 O2G        -2.5764    0.2518   -6.4668 O.co2     1 ATP        -0.8438
      4 O3G        -1.7850    2.5771   -7.1656 O.3       1 ATP        -0.7800
      5 PB          0.0060    2.7652   -4.4339 P.3       1 ATP         1.9223
      6 O1B         0.5012    3.8043   -5.3957 O.2       1 ATP        -0.8953
      7 O2B        -0.9390    3.3245   -3.2474 O.3       1 ATP        -0.8165
      8 O3B        -0.8698    1.5772   -5.0932 O.3       1 ATP        -0.8247
      9 PA          2.3334    0.9635   -4.2388 P.3       1 ATP         1.6157
     10 O1A         3.3073    1.8124   -5.0268 O.co2     1 ATP        -0.8629
     11 O2A         1.6936   -0.2585   -4.8610 O.co2     1 ATP        -0.8629
     12 O3A         1.1470    1.9241   -3.6593 O.3       1 ATP        -0.8191
     13 O5'         3.0213    0.5153   -2.8245 O.3       1 ATP        -0.5644
     14 C5'         2.2816   -0.2918   -1.9206 C.3       1 ATP         0.2062
     15 C4'         2.7248    0.0226   -0.4980 C.3       1 ATP         0.0971
     16 O4'         2.4697    1.4219   -0.2462 O.3       1 ATP        -0.3662
     17 C3'         1.9404   -0.7419    0.5596 C.3       1 ATP         0.0734
     18 O3'         2.7418   -0.8086    1.7389 O.3       1 ATP        -0.5671
     19 C2'         0.7477    0.1630    0.7858 C.3       1 ATP         0.0745
     20 O2'         0.1373   -0.0577    2.0407 O.3       1 ATP        -0.5794
     21 C1'         1.3733    1.5427    0.6747 C.3       1 ATP         0.3824
     22 N9          0.4520    2.5240    0.1767 N.pl3     1 ATP        -0.4324
     23 C8          0.5691    3.2215   -0.9485 C.ar      1 ATP         0.2662
     24 N7         -0.4499    4.0551   -1.1342 N.pl3     1 ATP        -0.4772
     25 C5         -1.2618    3.8674   -0.0512 C.ar      1 ATP        -0.1305
     26 C6         -2.5420    4.5007    0.3120 C.ar      1 ATP         0.7186
     27 N6         -3.0874    5.3993   -0.4432 N.2       1 ATP        -0.8115
     28 N1         -3.0494    4.0205    1.5133 N.pl3     1 ATP        -0.8400
     29 C2         -2.3933    3.0527    2.2567 C.ar      1 ATP         0.6671
     30 N3         -1.2611    2.4796    1.9536 N.2       1 ATP        -0.5806
     31 C4         -0.7334    2.9358    0.7669 C.ar      1 ATP         0.2748
     32 HOG3       -1.1160    2.2225   -7.7892 H         1 ATP         0.4327
     33 HOB2       -1.7768    3.7778   -3.4817 H         1 ATP         0.4701
     34 H5'1        1.2163   -0.0770   -2.0471 H         1 ATP         0.0401
     35 H5'2        2.4655   -1.3443   -2.1563 H         1 ATP         0.0401
     36 H4'         3.8044   -0.1397   -0.4040 H         1 ATP         0.1136
     37 H3'         1.6764   -1.7639    0.2728 H         1 ATP         0.0693
     38 HO3'        2.2232   -1.2979    2.3953 H         1 ATP         0.4124
     39 H2'        -0.0011    0.0027    0.0003 H         1 ATP         0.0854
     40 HO2'       -0.1563   -0.9855    2.0596 H         1 ATP         0.4367
     41 H1'         1.7826    1.9024    1.6451 H         1 ATP         0.1343
     42 H8          1.3912    3.1285   -1.6365 H         1 ATP         0.3302
     43 HN62       -3.9637    5.7084   -0.0142 H         1 ATP         0.4160
     44 H2         -2.9317    2.7866    3.1796 H         1 ATP         0.0756
     45 H45        -3.9307    4.3923    1.8559 H         1 ATP         0.4587
     46 H46        -0.5835    4.6857   -1.9122 H         1 ATP         0.5254
@<TRIPOS>BOND
     1    1    2 2
     2    1    3 1
     3    1    4 1
     4    1    8 1
     5    4   32 1
     6    5    6 2
     7    5    7 1
     8    5    8 1
     9    5   12 1
    10    7   33 1
    11    9   10 2
    12    9   11 1
    13    9   12 1
    14    9   13 1
    15   13   14 1
    16   14   15 1
    17   14   34 1
    18   14   35 1
    19   15   16 1
    20   15   17 1
    21   15   36 1
    22   16   21 1
    23   17   18 1
    24   17   19 1
    25   17   37 1
    26   18   38 1
    27   19   20 1
    28   19   21 1
    29   19   39 1
    30   20   40 1
    31   21   22 1
    32   21   41 1
    33   22   23 ar
    34   22   31 ar
    35   23   24 ar
    36   23   42 1
    37   24   25 ar
    38   24   46 1
    39   25   26 ar
    40   25   31 ar
    41   26   27 2
    42   26   28 ar
    43   27   43 1
    44   28   29 ar
    45   28   45 1
    46   29   30 ar
    47   29   44 1
    48   30   31 ar
@<TRIPOS>SUBSTRUCTURE
     1 ATP         1 GROUP 0 A     ****
@<TRIPOS>MOLECULE
[[[3,4-dihydroxy-5-(6-imino-7,8-dihydro-1~{H}-purin-8-ylium-9-yl)tetrahydrofuran-2-yl]methoxy-oxido-phosphoryl]oxy-hydroxy-phosphoryl] hydrogen phosphate
   46    48     1     0     0
SMALL
USER_CHARGES

@<TRIPOS>ATOM
      1 PG          7.7464    0.9368   -4.4240 P.3       1 ATP         1.5595
      2 O1G         8.1785    2.2821   -4.9635 O.co2     1 ATP        -0.8438
      3 O2G         7.0929   -0.0878   -5.3243 O.co2     1 ATP        -0.8438
      4 O3G         9.0255    0.2388   -3.6871 O.3       1 ATP        -0.7800
      5 PB          6.1907    0.1115   -2.0583 P.3       1 ATP         1.9223
      6 O1B         7.2025   -0.7047   -1.3098 O.2       1 ATP        -0.8953
      7 O2B         5.2168    1.0116   -1.1337 O.3       1 ATP        -0.8165
      8 O3B         6.8043    1.1712   -3.1134 O.3       1 ATP        -0.8247
      9 PA          3.9552   -0.2066   -3.9564 P.3       1 ATP         1.6157
     10 O1A         3.2311   -1.4130   -4.5133 O.co2     1 ATP        -0.8629
     11 O2A         4.4938    0.8658   -4.8783 O.co2     1 ATP        -0.8629
     12 O3A         5.1749   -0.7199   -2.9999 O.3       1 ATP        -0.8191
     13 O5'         3.0213    0.5153   -2.8245 O.3       1 ATP        -0.5644
     14 C5'         2.2816   -0.2918   -1.9206 C.3       1 ATP         0.2062
     15 C4'         2.7248    0.0226   -0.4980 C.3       1 ATP         0.0971
     16 O4'         2.4697    1.4219   -0.2462 O.3       1 ATP        -0.3662
     17 C3'         1.9404   -0.7419    0.5596 C.3       1 ATP         0.0734
     18 O3'         2.7418   -0.8086    1.7389 O.3       1 ATP        -0.5671
     19 C2'         0.7477    0.1630    0.7858 C.3       1 ATP         0.0745
     20 O2'         0.1373   -0.0577    2.0407 O.3       1 ATP        -0.5794
     21 C1'         1.3733    1.5427    0.6747 C.3       1 ATP         0.3824
     22 N9          0.4520    2.5240    0.1767 N.pl3     1 ATP        -0.4324
     23 C8          0.2216    2.8192   -1.0985 C.ar      1 ATP         0.2662
     24 N7         -0.6906    3.7763   -1.2384 N.pl3     1 ATP        -0.4772
     25 C5         -1.0575    4.1037    0.0366 C.ar      1 ATP        -0.1305
     26 C6         -2.0291    5.0943    0.5330 C.ar      1 ATP         0.7186
     27 N6         -2.7093    5.8371   -0.2800 N.2       1 ATP        -0.8115
     28 N1         -2.1051    5.1136    1.9204 N.pl3     1 ATP        -0.8400
     29 C2         -1.3354    4.2774    2.7129 C.ar      1 ATP         0.6671
     30 N3         -0.4707    3.3945    2.2944 N.2       1 ATP        -0.5806
     31 C4         -0.3734    3.3525    0.9220 C.ar      1 ATP         0.2748
     32 HOG3        8.9049   -0.6465   -3.2823 H         1 ATP         0.4327
     33 HOB2        5.6131    1.6932   -0.5501 H         1 ATP         0.4701
     34 H5'1        1.2163   -0.0770   -2.0471 H         1 ATP         0.0401
     35 H5'2        2.4655   -1.3443   -2.1563 H         1 ATP         0.0401
     36 H4'         3.8044   -0.1397   -0.4040 H         1 ATP         0.1136
     37 H3'         1.6764   -1.7639    0.2728 H         1 ATP         0.0693
     38 HO3'        3.5554   -1.2733    1.4914 H         1 ATP         0.4124
     39 H2'        -0.0011    0.0027    0.0003 H         1 ATP         0.0854
     40 HO2'       -0.6141    0.5574    2.1082 H         1 ATP         0.4367
     41 H1'         1.7826    1.9024    1.6451 H         1 ATP         0.1343
     42 H8          0.7125    2.3429   -1.9292 H         1 ATP         0.3302
     43 HN62       -3.3217    6.4517    0.2629 H         1 ATP         0.4160
     44 H2         -1.5188    4.4223    3.7890 H         1 ATP         0.0756
     45 H45        -2.7470    5.7627    2.3665 H         1 ATP         0.4587
     46 H46        -1.0305    4.1680   -2.1054 H         1 ATP         0.5254
@<TRIPOS>BOND
     1    1    2 2
     2    1    3 1
     3    1    4 1
     4    1    8 1
     5    4   32 1
     6    5    6 2
     7    5    7 1
     8    5    8 1
     9    5   12 1
    10    7   33 1
    11    9   10 2
    12    9   11 1
    13    9   12 1
    14    9   13 1
    15   13   14 1
    16   14   15 1
    17   14   34 1
    18   14   35 1
    19   15   16 1
    20   15   17 1
    21   15   36 1
    22   16   21 1
    23   17   18 1
    24   17   19 1
    25   17   37 1
    26   18   38 1
    27   19   20 1
    28   19   21 1
    29   19   39 1
    30   20   40 1
    31   21   22 1
    32   21   41 1
    33   22   23 ar
    34   22   31 ar
    35   23   24 ar
    36   23   42 1
    37   24   25 ar
    38   24   46 1
    39   25   26 ar
    40   25   31 ar
    41   26   27 2
    42   26   28 ar
    43   27   43 1
    44   28   29 ar
    45   28   45 1
    46   29   30 ar
    47   29   44 1
    48   30   31 ar
@<TRIPOS>SUBSTRUCTURE
     1 ATP         1 GROUP 0 A     ****
@<TRIPOS>MOLECULE
[[[3,4-dihydroxy-5-(6-imino-7,8-dihydro-1~{H}-purin-8-ylium-9-yl)tetrahydrofuran-2-yl]methoxy-oxido-phosphoryl]oxy-hydroxy-phosphoryl] hydrogen phosphate
   46    48     1     0     0
SMALL
USER_CHARGES

@<TRIPOS>ATOM
      1 PG         -1.9926   -0.9269   -4.2310 P.3       1 ATP         1.5595
      2 O1G        -3.0648   -0.5043   -3.2514 O.co2     1 ATP        -0.8438
      3 O2G        -2.1602   -0.6915   -5.7156 O.co2     1 ATP        -0.8438
      4 O3G        -0.5728   -0.2726   -3.7594 O.3       1 ATP        -0.7800
      5 PB         -1.2120   -3.2745   -2.6256 P.3       1 ATP         1.9223
      6 O1B        -2.2186   -3.2202   -1.5147 O.2       1 ATP        -0.8953
      7 O2B        -0.8368   -4.7610   -3.1384 O.3       1 ATP        -0.8165
      8 O3B        -1.6362   -2.4983   -3.9786 O.3       1 ATP        -0.8247
      9 PA          1.5543   -2.4556   -3.2404 P.3       1 ATP         1.6157
     10 O1A         1.2372   -1.5511   -4.4114 O.co2     1 ATP        -0.8629
     11 O2A         2.1275   -3.8380   -3.4641 O.co2     1 ATP        -0.8629
     12 O3A         0.2206   -2.5984   -2.3094 O.3       1 ATP        -0.8191
     13 O5'         2.5245   -1.6648   -2.1878 O.3       1 ATP        -0.5644
     14 C5'         2.2816   -0.2918   -1.9206 C.3       1 ATP         0.2062
     15 C4'         2.7248    0.0226   -0.4980 C.3       1 ATP         0.0971
     16 O4'         2.4697    1.4219   -0.2462 O.3       1 ATP        -0.3662
     17 C3'         1.9404   -0.7419    0.5596 C.3       1 ATP         0.0734
     18 O3'         2.7418   -0.8086    1.7389 O.3       1 ATP        -0.5671
     19 C2'         0.7477    0.1630    0.7858 C.3       1 ATP         0.0745
     20 O2'         0.1373   -0.0577    2.0407 O.3       1 ATP        -0.5794
     21 C1'         1.3733    1.5427    0.6747 C.3       1 ATP         0.3824
     22 N9          0.4520    2.5240    0.1767 N.pl3     1 ATP        -0.4324
     23 C8          0.2216    2.8192   -1.0985 C.ar      1 ATP         0.2662
     24 N7         -0.6906    3.7763   -1.2384 N.pl3     1 ATP        -0.4772
     25 C5         -1.0575    4.1037    0.0366 C.ar      1 ATP        -0.1305
     26 C6         -2.0291    5.0943    0.5330 C.ar      1 ATP         0.7186
     27 N6         -2.7093    5.8371   -0.2800 N.2       1 ATP        -0.8115
     28 N1         -2.1051    5.1136    1.9204 N.pl3     1 ATP        -0.8400
     29 C2         -1.3354    4.2774    2.7129 C.ar      1 ATP         0.6671
     30 N3         -0.4707    3.3945    2.2944 N.2       1 ATP        -0.5806
     31 C4         -0.3734    3.3525    0.9220 C.ar      1 ATP         0.2748
     32 HOG3       -0.2231   -0.5057   -2.8731 H         1 ATP         0.4327
     33 HOB2       -0.4485   -5.3986   -2.5020 H         1 ATP         0.4701
     34 H5'1        2.8432    0.3119   -2.6398 H         1 ATP         0.0401
     35 H5'2        1.2128   -0.0927   -2.0428 H         1 ATP         0.0401
     36 H4'         3.8044   -0.1397   -0.4040 H         1 ATP         0.1136
     37 H3'         1.6764   -1.7639    0.2728 H         1 ATP         0.0693
     38 HO3'        3.5554   -1.2733    1.4914 H         1 ATP         0.4124
     39 H2'        -0.0011    0.0027    0.0003 H         1 ATP         0.0854
     40 HO2'       -0.6141    0.5574    2.1082 H         1 ATP         0.4367
     41 H1'         1.7826    1.9024    1.6451 H         1 ATP         0.1343
     42 H8          0.7125    2.3429   -1.9292 H         1 ATP         0.3302
     43 HN62       -3.3217    6.4517    0.2629 H         1 ATP         0.4160
     44 H2         -1.5188    4.4223    3.7890 H         1 ATP         0.0756
     45 H45        -2.7470    5.7627    2.3665 H         1 ATP         0.4587
     46 H46        -1.0305    4.1680   -2.1054 H         1 ATP         0.5254
@<TRIPOS>BOND
     1    1    2 2
     2    1    3 1
     3    1    4 1
     4    1    8 1
     5    4   32 1
     6    5    6 2
     7    5    7 1
     8    5    8 1
     9    5   12 1
    10    7   33 1
    11    9   10 2
    12    9   11 1
    13    9   12 1
    14    9   13 1
    15   13   14 1
    16   14   15 1
    17   14   34 1
    18   14   35 1
    19   15   16 1
    20   15   17 1
    21   15   36 1
    22   16   21 1
    23   17   18 1
    24   17   19 1
    25   17   37 1
    26   18   38 1
    27   19   20 1
    28   19   21 1
    29   19   39 1
    30   20   40 1
    31   21   22 1
    32   21   41 1
    33   22   23 ar
    34   22   31 ar
    35   23   24 ar
    36   23   42 1
    37   24   25 ar
    38   24   46 1
    39   25   26 ar
    40   25   31 ar
    41   26   27 2
    42   26   28 ar
    43   27   43 1
    44   28   29 ar
    45   28   45 1
    46   29   30 ar
    47   29   44 1
    48   30   31 ar
@<TRIPOS>SUBSTRUCTURE
     1 ATP         1 GROUP 0 A     ****
@<TRIPOS>MOLECULE
[[[3,4-dihydroxy-5-(6-imino-7,8-dihydro-1~{H}-purin-8-ylium-9-yl)tetrahydrofuran-2-yl]methoxy-oxido-phosphoryl]oxy-hydroxy-phosphoryl] hydrogen phosphate
   46    48     1     0     0
SMALL
USER_CHARGES

@<TRIPOS>ATOM
      1 PG          7.0732   -4.4121   -0.8688 P.3       1 ATP         1.5595
      2 O1G         6.3742   -4.7318    0.4339 O.co2     1 ATP        -0.8438
      3 O2G         8.4989   -3.9076   -0.8821 O.co2     1 ATP        -0.8438
      4 O3G         6.9766   -5.7190   -1.8429 O.3       1 ATP        -0.7800
      5 PB          5.7197   -1.8564   -1.4469 P.3       1 ATP         1.9223
      6 O1B         4.9660   -1.6263   -0.1704 O.2       1 ATP        -0.8953
      7 O2B         7.1137   -1.0477   -1.5750 O.3       1 ATP        -0.8165
      8 O3B         6.1395   -3.3910   -1.7323 O.3       1 ATP        -0.8247
      9 PA          3.5300   -2.0728   -3.4114 P.3       1 ATP         1.6157
     10 O1A         3.6302   -3.5801   -3.5007 O.co2     1 ATP        -0.8629
     11 O2A         3.1559   -1.2493   -4.6246 O.co2     1 ATP        -0.8629
     12 O3A         4.9288   -1.4871   -2.8061 O.3       1 ATP        -0.8191
     13 O5'         2.5245   -1.6648   -2.1878 O.3       1 ATP        -0.5644
     14 C5'         2.2816   -0.2918   -1.9206 C.3       1 ATP         0.2062
     15 C4'         2.7248    0.0226   -0.4980 C.3       1 ATP         0.0971
     16 O4'         2.4697    1.4219   -0.2462 O.3       1 ATP        -0.3662
     17 C3'         1.9404   -0.7419    0.5596 C.3       1 ATP         0.0734
     18 O3'         2.7418   -0.8086    1.7389 O.3       1 ATP        -0.5671
     19 C2'         0.7477    0.1630    0.7858 C.3       1 ATP         0.0745
     20 O2'         0.1373   -0.0577    2.0407 O.3       1 ATP        -0.5794
     21 C1'         1.3733    1.5427    0.6747 C.3       1 ATP         0.3824
     22 N9          0.4520    2.5240    0.1767 N.pl3     1 ATP        -0.4324
     23 C8          0.2216    2.8192   -1.0985 C.ar      1 ATP         0.2662
     24 N7         -0.6906    3.7763   -1.2384 N.pl3     1 ATP        -0.4772
     25 C5         -1.0575    4.1037    0.0366 C.ar      1 ATP        -0.1305
     26 C6         -2.0291    5.0943    0.5330 C.ar      1 ATP         0.7186
     27 N6         -2.7093    5.8371   -0.2800 N.2       1 ATP        -0.8115
     28 N1         -2.1051    5.1136    1.9204 N.pl3     1 ATP        -0.8400
     29 C2         -1.3354    4.2774    2.7129 C.ar      1 ATP         0.6671
     30 N3         -0.4707    3.3945    2.2944 N.2       1 ATP        -0.5806
     31 C4         -0.3734    3.3525    0.9220 C.ar      1 ATP         0.2748
     32 HOG3        7.3865   -5.6691   -2.7327 H         1 ATP         0.4327
     33 HOB2        7.8174   -1.2068   -0.9104 H         1 ATP         0.4701
     34 H5'1        2.8432    0.3119   -2.6398 H         1 ATP         0.0401
     35 H5'2        1.2128   -0.0927   -2.0428 H         1 ATP         0.0401
     36 H4'         3.8044   -0.1397   -0.4040 H         1 ATP         0.1136
     37 H3'         1.6764   -1.7639    0.2728 H         1 ATP         0.0693
     38 HO3'        2.2232   -1.2979    2.3953 H         1 ATP         0.4124
     39 H2'        -0.0011    0.0027    0.0003 H         1 ATP         0.0854
     40 HO2'       -0.6141    0.5574    2.1082 H         1 ATP         0.4367
     41 H1'         1.7826    1.9024    1.6451 H         1 ATP         0.1343
     42 H8          0.7125    2.3429   -1.9292 H         1 ATP         0.3302
     43 HN62       -3.3217    6.4517    0.2629 H         1 ATP         0.4160
     44 H2         -1.5188    4.4223    3.7890 H         1 ATP         0.0756
     45 H45        -2.7470    5.7627    2.3665 H         1 ATP         0.4587
     46 H46        -1.0305    4.1680   -2.1054 H         1 ATP         0.5254
@<TRIPOS>BOND
     1    1    2 2
     2    1    3 1
     3    1    4 1
     4    1    8 1
     5    4   32 1
     6    5    6 2
     7    5    7 1
     8    5    8 1
     9    5   12 1
    10    7   33 1
    11    9   10 2
    12    9   11 1
    13    9   12 1
    14    9   13 1
    15   13   14 1
    16   14   15 1
    17   14   34 1
    18   14   35 1
    19   15   16 1
    20   15   17 1
    21   15   36 1
    22   16   21 1
    23   17   18 1
    24   17   19 1
    25   17   37 1
    26   18   38 1
    27   19   20 1
    28   19   21 1
    29   19   39 1
    30   20   40 1
    31   21   22 1
    32   21   41 1
    33   22   23 ar
    34   22   31 ar
    35   23   24 ar
    36   23   42 1
    37   24   25 ar
    38   24   46 1
    39   25   26 ar
    40   25   31 ar
    41   26   27 2
    42   26   28 ar
    43   27   43 1
    44   28   29 ar
    45   28   45 1
    46   29   30 ar
    47   29   44 1
    48   30   31 ar
@<TRIPOS>SUBSTRUCTURE
     1 ATP         1 GROUP 0 A     ****
@<TRIPOS>MOLECULE
[[[3,4-dihydroxy-5-(6-imino-7,8-dihydro-1~{H}-purin-8-ylium-9-yl)tetrahydrofuran-2-yl]methoxy-oxido-phosphoryl]oxy-hydroxy-phosphoryl] hydrogen phosphate
   46    48     1     0     0
SMALL
USER_CHARGES

@<TRIPOS>ATOM
      1 PG         -0.8278   -0.5920   -6.9552 P.3       1 ATP         1.5595
      2 O1G         0.0792   -1.8024   -6.9523 O.co2     1 ATP        -0.8438
      3 O2G        -0.8589    0.3528   -8.1358 O.co2     1 ATP        -0.8438
      4 O3G        -2.3531   -1.0867   -6.6468 O.3       1 ATP        -0.7800
      5 PB          0.7324    1.0973   -5.1086 P.3       1 ATP         1.9223
      6 O1B         1.1508    2.2169   -6.0151 O.2       1 ATP        -0.8953
      7 O2B         0.3626    1.5399   -3.5984 O.3       1 ATP        -0.8165
      8 O3B        -0.5668    0.2668   -5.5934 O.3       1 ATP        -0.8247
      9 PA          3.3342   -0.0516   -4.3262 P.3       1 ATP         1.6157
     10 O1A         4.1296    0.9783   -5.0986 O.co2     1 ATP        -0.8629
     11 O2A         3.8297   -1.4758   -4.1998 O.co2     1 ATP        -0.8629
     12 O3A         1.8112   -0.0892   -4.9136 O.3       1 ATP        -0.8191
     13 O5'         3.0213    0.5153   -2.8245 O.3       1 ATP        -0.5644
     14 C5'         2.2816   -0.2918   -1.9206 C.3       1 ATP         0.2062
     15 C4'         2.7248    0.0226   -0.4980 C.3       1 ATP         0.0971
     16 O4'         2.4697    1.4219   -0.2462 O.3       1 ATP        -0.3662
     17 C3'         1.9404   -0.7419    0.5596 C.3       1 ATP         0.0734
     18 O3'         2.7418   -0.8086    1.7389 O.3       1 ATP        -0.5671
     19 C2'         0.7477    0.1630    0.7858 C.3       1 ATP         0.0745
     20 O2'         0.1373   -0.0577    2.0407 O.3       1 ATP        -0.5794
     21 C1'         1.3733    1.5427    0.6747 C.3       1 ATP         0.3824
     22 N9          0.4520    2.5240    0.1767 N.pl3     1 ATP        -0.4324
     23 C8         -0.2004    2.4829   -0.9804 C.ar      1 ATP         0.2662
     24 N7         -0.9830    3.5431   -1.1568 N.pl3     1 ATP        -0.4772
     25 C5         -0.8095    4.3012   -0.0331 C.ar      1 ATP        -0.1305
     26 C6         -1.4065    5.5904    0.3585 C.ar      1 ATP         0.7186
     27 N6         -2.2501    6.2030   -0.4084 N.2       1 ATP        -0.8115
     28 N1         -0.9585    6.0272    1.5994 N.pl3     1 ATP        -0.8400
     29 C2         -0.0508    5.3009    2.3532 C.ar      1 ATP         0.6671
     30 N3          0.4890    4.1592    2.0257 N.2       1 ATP        -0.5806
     31 C4          0.0637    3.7006    0.7995 C.ar      1 ATP         0.2748
     32 HOG3       -3.0649   -0.4126   -6.6149 H         1 ATP         0.4327
     33 HOB2        1.0485    1.9782   -3.0509 H         1 ATP         0.4701
     34 H5'1        1.2163   -0.0770   -2.0471 H         1 ATP         0.0401
     35 H5'2        2.4655   -1.3443   -2.1563 H         1 ATP         0.0401
     36 H4'         3.8044   -0.1397   -0.4040 H         1 ATP         0.1136
     37 H3'         1.6764   -1.7639    0.2728 H         1 ATP         0.0693
     38 HO3'        3.5554   -1.2733    1.4914 H         1 ATP         0.4124
     39 H2'        -0.0011    0.0027    0.0003 H         1 ATP         0.0854
     40 HO2'       -0.1563   -0.9855    2.0596 H         1 ATP         0.4367
     41 H1'         1.7826    1.9024    1.6451 H         1 ATP         0.1343
     42 H8         -0.1116    1.6863   -1.6984 H         1 ATP         0.3302
     43 HN62       -2.5420    7.0730    0.0447 H         1 ATP         0.4160
     44 H2          0.1969    5.7893    3.3086 H         1 ATP         0.0756
     45 H45        -1.3097    6.9080    1.9642 H         1 ATP         0.4587
     46 H46        -1.5735    3.7351   -1.9538 H         1 ATP         0.5254
@<TRIPOS>BOND
     1    1    2 2
     2    1    3 1
     3    1    4 1
     4    1    8 1
     5    4   32 1
     6    5    6 2
     7    5    7 1
     8    5    8 1
     9    5   12 1
    10    7   33 1
    11    9   10 2
    12    9   11 1
    13    9   12 1
    14    9   13 1
    15   13   14 1
    16   14   15 1
    17   14   34 1
    18   14   35 1
    19   15   16 1
    20   15   17 1
    21   15   36 1
    22   16   21 1
    23   17   18 1
    24   17   19 1
    25   17   37 1
    26   18   38 1
    27   19   20 1
    28   19   21 1
    29   19   39 1
    30   20   40 1
    31   21   22 1
    32   21   41 1
    33   22   23 ar
    34   22   31 ar
    35   23   24 ar
    36   23   42 1
    37   24   25 ar
    38   24   46 1
    39   25   26 ar
    40   25   31 ar
    41   26   27 2
    42   26   28 ar
    43   27   43 1
    44   28   29 ar
    45   28   45 1
    46   29   30 ar
    47   29   44 1
    48   30   31 ar
@<TRIPOS>SUBSTRUCTURE
     1 ATP         1 GROUP 0 A     ****
@<TRIPOS>MOLECULE
[[[3,4-dihydroxy-5-(6-imino-7,8-dihydro-1~{H}-purin-8-ylium-9-yl)tetrahydrofuran-2-yl]methoxy-oxido-phosphoryl]oxy-hydroxy-phosphoryl] hydrogen phosphate
   46    48     1     0     0
SMALL
USER_CHARGES

@<TRIPOS>ATOM
      1 PG          2.8939   -5.1129    0.2075 P.3       1 ATP         1.5595
      2 O1G         2.4794   -3.7707   -0.3531 O.co2     1 ATP        -0.8438
      3 O2G         3.1357   -6.2947   -0.7049 O.co2     1 ATP        -0.8438
      4 O3G         4.2170   -4.8988    1.1401 O.3       1 ATP        -0.7800
      5 PB          1.8666   -6.7920    2.4036 P.3       1 ATP         1.9223
      6 O1B         1.8780   -8.1502    1.7668 O.2       1 ATP        -0.8953
      7 O2B         3.1325   -6.4713    3.3567 O.3       1 ATP        -0.8165
      8 O3B         1.8385   -5.5475    1.3725 O.3       1 ATP        -0.8247
      9 PA         -1.0040   -6.4120    2.9662 P.3       1 ATP         1.6157
     10 O1A        -1.7671   -5.9142    4.1744 O.co2     1 ATP        -0.8629
     11 O2A        -1.3789   -7.7172    2.2985 O.co2     1 ATP        -0.8629
     12 O3A         0.5865   -6.4621    3.3320 O.3       1 ATP        -0.8191
     13 O5'        -0.9724   -5.2440    1.8220 O.3       1 ATP        -0.5644
     14 C5'        -0.7840   -3.8935    2.2172 C.3       1 ATP         0.2062
     15 C4'        -0.0724   -3.1466    1.1027 C.3       1 ATP         0.0971
     16 O4'        -0.8674   -3.1929   -0.0945 O.3       1 ATP        -0.3662
     17 C3'         0.1338   -1.6715    1.4027 C.3       1 ATP         0.0734
     18 O3'         1.2893   -1.4445    2.1808 O.3       1 ATP        -0.5671
     19 C2'         0.2158   -1.0724    0.0128 C.3       1 ATP         0.0745
     20 O2'         1.5141   -1.2448   -0.5513 O.3       1 ATP        -0.5794
     21 C1'        -0.7897   -1.9176   -0.7583 C.3       1 ATP         0.3824
     22 N9         -2.1040   -1.3333   -0.7704 N.pl3     1 ATP        -0.4324
     23 C8         -3.0590   -1.5123    0.1363 C.ar      1 ATP         0.2662
     24 N7         -4.1655   -0.8354   -0.1554 N.pl3     1 ATP        -0.4772
     25 C5         -3.8852   -0.1874   -1.3253 C.ar      1 ATP        -0.1305
     26 C6         -4.7113    0.7160   -2.1458 C.ar      1 ATP         0.7186
     27 N6         -5.9213    1.0209   -1.8021 N.2       1 ATP        -0.8115
     28 N1         -4.0411    1.1673   -3.2764 N.pl3     1 ATP        -0.8400
     29 C2         -2.7403    0.7865   -3.5638 C.ar      1 ATP         0.6671
     30 N3         -1.9921   -0.0108   -2.8519 N.2       1 ATP        -0.5806
     31 C4         -2.6302   -0.4747   -1.7239 C.ar      1 ATP         0.2748
     32 HOG3        4.6106   -5.6828    1.5789 H         1 ATP         0.4327
     33 HOB2        3.2959   -7.0430    4.1369 H         1 ATP         0.4701
     34 H5'1       -1.7618   -3.4448    2.4164 H         1 ATP         0.0401
     35 H5'2       -0.1874   -3.8744    3.1341 H         1 ATP         0.0401
     36 H4'         0.8874   -3.6466    0.8805 H         1 ATP         0.1136
     37 H3'        -0.7376   -1.2333    1.9867 H         1 ATP         0.0693
     38 HO3'        1.3408   -0.4870    2.3219 H         1 ATP         0.4124
     39 H2'        -0.0384   -0.0310    0.0096 H         1 ATP         0.0854
     40 HO2'        2.1463   -0.7958    0.0370 H         1 ATP         0.4367
     41 H1'        -0.4769   -2.1002   -1.8093 H         1 ATP         0.1343
     42 H8         -2.9569   -2.1323    1.0098 H         1 ATP         0.3302
     43 HN62       -6.3169    1.6552   -2.5012 H         1 ATP         0.4160
     44 H2         -2.3612    1.2343   -4.4957 H         1 ATP         0.0756
     45 H45        -4.5223    1.7976   -3.9117 H         1 ATP         0.4587
     46 H46        -5.0218   -0.8132    0.3804 H         1 ATP         0.5254
@<TRIPOS>BOND
     1    1    2 2
     2    1    3 1
     3    1    4 1
     4    1    8 1
     5    4   32 1
     6    5    6 2
     7    5    7 1
     8    5    8 1
     9    5   12 1
    10    7   33 1
    11    9   10 2
    12    9   11 1
    13    9   12 1
    14    9   13 1
    15   13   14 1
    16   14   15 1
    17   14   34 1
    18   14   35 1
    19   15   16 1
    20   15   17 1
    21   15   36 1
    22   16   21 1
    23   17   18 1
    24   17   19 1
    25   17   37 1
    26   18   38 1
    27   19   20 1
    28   19   21 1
    29   19   39 1
    30   20   40 1
    31   21   22 1
    32   21   41 1
    33   22   23 ar
    34   22   31 ar
    35   23   24 ar
    36   23   42 1
    37   24   25 ar
    38   24   46 1
    39   25   26 ar
    40   25   31 ar
    41   26   27 2
    42   26   28 ar
    43   27   43 1
    44   28   29 ar
    45   28   45 1
    46   29   30 ar
    47   29   44 1
    48   30   31 ar
@<TRIPOS>SUBSTRUCTURE
     1 ATP         1 GROUP 0 A     ****
@<TRIPOS>MOLECULE
[[[3,4-dihydroxy-5-(6-imino-7,8-dihydro-1~{H}-purin-8-ylium-9-yl)tetrahydrofuran-2-yl]methoxy-oxido-phosphoryl]oxy-hydroxy-phosphoryl] hydrogen phosphate
   46    48     1     0     0
SMALL
USER_CHARGES

@<TRIPOS>ATOM
      1 PG         -4.6241   -7.0084   -1.8563 P.3       1 ATP         1.5595
      2 O1G        -5.8586   -6.2283   -2.2504 O.co2     1 ATP        -0.8438
      3 O2G        -4.6308   -8.5208   -1.8470 O.co2     1 ATP        -0.8438
      4 O3G        -3.3746   -6.5012   -2.7770 O.3       1 ATP        -0.7800
      5 PB         -3.7519   -4.9726    0.0912 P.3       1 ATP         1.9223
      6 O1B        -2.6651   -4.2780   -0.6748 O.2       1 ATP        -0.8953
      7 O2B        -5.1845   -4.2234    0.0802 O.3       1 ATP        -0.8165
      8 O3B        -4.0989   -6.4700   -0.4091 O.3       1 ATP        -0.8247
      9 PA         -2.2652   -6.0679    2.3914 P.3       1 ATP         1.6157
     10 O1A        -2.2515   -7.4751    1.8351 O.co2     1 ATP        -0.8629
     11 O2A        -2.3598   -5.8266    3.8823 O.co2     1 ATP        -0.8629
     12 O3A        -3.4559   -5.2240    1.6592 O.3       1 ATP        -0.8191
     13 O5'        -0.9724   -5.2440    1.8220 O.3       1 ATP        -0.5644
     14 C5'        -0.7840   -3.8935    2.2172 C.3       1 ATP         0.2062
     15 C4'        -0.0724   -3.1466    1.1027 C.3       1 ATP         0.0971
     16 O4'        -0.8674   -3.1929   -0.0945 O.3       1 ATP        -0.3662
     17 C3'         0.1338   -1.6715    1.4027 C.3       1 ATP         0.0734
     18 O3'         1.2893   -1.4445    2.1808 O.3       1 ATP        -0.5671
     19 C2'         0.2158   -1.0724    0.0128 C.3       1 ATP         0.0745
     20 O2'         1.5141   -1.2448   -0.5513 O.3       1 ATP        -0.5794
     21 C1'        -0.7897   -1.9176   -0.7583 C.3       1 ATP         0.3824
     22 N9         -2.1040   -1.3333   -0.7704 N.pl3     1 ATP        -0.4324
     23 C8         -3.0590   -1.5123    0.1363 C.ar      1 ATP         0.2662
     24 N7         -4.1655   -0.8354   -0.1554 N.pl3     1 ATP        -0.4772
     25 C5         -3.8852   -0.1874   -1.3253 C.ar      1 ATP        -0.1305
     26 C6         -4.7113    0.7160   -2.1458 C.ar      1 ATP         0.7186
     27 N6         -5.9213    1.0209   -1.8021 N.2       1 ATP        -0.8115
     28 N1         -4.0411    1.1673   -3.2764 N.pl3     1 ATP        -0.8400
     29 C2         -2.7403    0.7865   -3.5638 C.ar      1 ATP         0.6671
     30 N3         -1.9921   -0.0108   -2.8519 N.2       1 ATP        -0.5806
     31 C4         -2.6302   -0.4747   -1.7239 C.ar      1 ATP         0.2748
     32 HOG3       -2.4959   -6.9151   -2.6402 H         1 ATP         0.4327
     33 HOB2       -5.6313   -4.0665   -0.7789 H         1 ATP         0.4701
     34 H5'1       -1.7618   -3.4448    2.4164 H         1 ATP         0.0401
     35 H5'2       -0.1874   -3.8744    3.1341 H         1 ATP         0.0401
     36 H4'         0.8874   -3.6466    0.8805 H         1 ATP         0.1136
     37 H3'        -0.7376   -1.2333    1.9867 H         1 ATP         0.0693
     38 HO3'        1.3408   -0.4870    2.3219 H         1 ATP         0.4124
     39 H2'        -0.0384   -0.0310    0.0096 H         1 ATP         0.0854
     40 HO2'        2.1463   -0.7958    0.0370 H         1 ATP         0.4367
     41 H1'        -0.4769   -2.1002   -1.8093 H         1 ATP         0.1343
     42 H8         -2.9569   -2.1323    1.0098 H         1 ATP         0.3302
     43 HN62       -6.3169    1.6552   -2.5012 H         1 ATP         0.4160
     44 H2         -2.3612    1.2343   -4.4957 H         1 ATP         0.0756
     45 H45        -4.5223    1.7976   -3.9117 H         1 ATP         0.4587
     46 H46        -5.0218   -0.8132    0.3804 H         1 ATP         0.5254
@<TRIPOS>BOND
     1    1    2 2
     2    1    3 1
     3    1    4 1
     4    1    8 1
     5    4   32 1
     6    5    6 2
     7    5    7 1
     8    5    8 1
     9    5   12 1
    10    7   33 1
    11    9   10 2
    12    9   11 1
    13    9   12 1
    14    9   13 1
    15   13   14 1
    16   14   15 1
    17   14   34 1
    18   14   35 1
    19   15   16 1
    20   15   17 1
    21   15   36 1
    22   16   21 1
    23   17   18 1
    24   17   19 1
    25   17   37 1
    26   18   38 1
    27   19   20 1
    28   19   21 1
    29   19   39 1
    30   20   40 1
    31   21   22 1
    32   21   41 1
    33   22   23 ar
    34   22   31 ar
    35   23   24 ar
    36   23   42 1
    37   24   25 ar
    38   24   46 1
    39   25   26 ar
    40   25   31 ar
    41   26   27 2
    42   26   28 ar
    43   27   43 1
    44   28   29 ar
    45   28   45 1
    46   29   30 ar
    47   29   44 1
    48   30   31 ar
@<TRIPOS>SUBSTRUCTURE
     1 ATP         1 GROUP 0 A     ****
@<TRIPOS>MOLECULE
[[[3,4-dihydroxy-5-(6-imino-7,8-dihydro-1~{H}-purin-8-ylium-9-yl)tetrahydrofuran-2-yl]methoxy-oxido-phosphoryl]oxy-hydroxy-phosphoryl] hydrogen phosphate
   46    48     1     0     0
SMALL
USER_CHARGES

@<TRIPOS>ATOM
      1 PG          1.1572    3.4689   -3.5382 P.3       1 ATP         1.5595
      2 O1G         1.5433    3.7145   -2.0966 O.co2     1 ATP        -0.8438
      3 O2G        -0.2297    3.8051   -4.0391 O.co2     1 ATP        -0.8438
      4 O3G         2.2494    4.2087   -4.5005 O.3       1 ATP        -0.7800
      5 PB          1.4397    1.1520   -5.3410 P.3       1 ATP         1.9223
      6 O1B         0.0896    1.1201   -5.9942 O.2       1 ATP        -0.8953
      7 O2B         2.6047    1.8603   -6.2097 O.3       1 ATP        -0.8165
      8 O3B         1.5000    1.9208   -3.9204 O.3       1 ATP        -0.8247
      9 PA          3.4842   -0.6654   -4.2373 P.3       1 ATP         1.6157
     10 O1A         4.6104   -0.0320   -5.0250 O.co2     1 ATP        -0.8629
     11 O2A         3.4853   -2.1498   -3.9435 O.co2     1 ATP        -0.8629
     12 O3A         2.0649   -0.2850   -4.9494 O.3       1 ATP        -0.8191
     13 O5'         3.2903    0.1346   -2.8241 O.3       1 ATP        -0.5644
     14 C5'         2.2816   -0.2918   -1.9206 C.3       1 ATP         0.2062
     15 C4'         2.7248    0.0226   -0.4980 C.3       1 ATP         0.0971
     16 O4'         2.4697    1.4219   -0.2462 O.3       1 ATP        -0.3662
     17 C3'         1.9404   -0.7419    0.5596 C.3       1 ATP         0.0734
     18 O3'         2.7418   -0.8086    1.7389 O.3       1 ATP        -0.5671
     19 C2'         0.7477    0.1630    0.7858 C.3       1 ATP         0.0745
     20 O2'         0.1373   -0.0577    2.0407 O.3       1 ATP        -0.5794
     21 C1'         1.3733    1.5427    0.6747 C.3       1 ATP         0.3824
     22 N9          0.4520    2.5240    0.1767 N.pl3     1 ATP        -0.4324
     23 C8         -0.2004    2.4829   -0.9804 C.ar      1 ATP         0.2662
     24 N7         -0.9830    3.5431   -1.1568 N.pl3     1 ATP        -0.4772
     25 C5         -0.8095    4.3012   -0.0331 C.ar      1 ATP        -0.1305
     26 C6         -1.4065    5.5904    0.3585 C.ar      1 ATP         0.7186
     27 N6         -2.2501    6.2030   -0.4084 N.2       1 ATP        -0.8115
     28 N1         -0.9585    6.0272    1.5994 N.pl3     1 ATP        -0.8400
     29 C2         -0.0508    5.3009    2.3532 C.ar      1 ATP         0.6671
     30 N3          0.4890    4.1592    2.0257 N.2       1 ATP        -0.5806
     31 C4          0.0637    3.7006    0.7995 C.ar      1 ATP         0.2748
     32 HOG3        2.1362    4.1416   -5.4725 H         1 ATP         0.4327
     33 HOB2        2.8309    1.4916   -7.0901 H         1 ATP         0.4701
     34 H5'1        1.3514    0.2330   -2.1577 H         1 ATP         0.0401
     35 H5'2        2.1280   -1.3678   -2.0460 H         1 ATP         0.0401
     36 H4'         3.8044   -0.1397   -0.4040 H         1 ATP         0.1136
     37 H3'         1.6764   -1.7639    0.2728 H         1 ATP         0.0693
     38 HO3'        3.5554   -1.2733    1.4914 H         1 ATP         0.4124
     39 H2'        -0.0011    0.0027    0.0003 H         1 ATP         0.0854
     40 HO2'       -0.6141    0.5574    2.1082 H         1 ATP         0.4367
     41 H1'         1.7826    1.9024    1.6451 H         1 ATP         0.1343
     42 H8         -0.1116    1.6863   -1.6984 H         1 ATP         0.3302
     43 HN62       -2.5420    7.0730    0.0447 H         1 ATP         0.4160
     44 H2          0.1969    5.7893    3.3086 H         1 ATP         0.0756
     45 H45        -1.3097    6.9080    1.9642 H         1 ATP         0.4587
     46 H46        -1.5735    3.7351   -1.9538 H         1 ATP         0.5254
@<TRIPOS>BOND
     1    1    2 2
     2    1    3 1
     3    1    4 1
     4    1    8 1
     5    4   32 1
     6    5    6 2
     7    5    7 1
     8    5    8 1
     9    5   12 1
    10    7   33 1
    11    9   10 2
    12    9   11 1
    13    9   12 1
    14    9   13 1
    15   13   14 1
    16   14   15 1
    17   14   34 1
    18   14   35 1
    19   15   16 1
    20   15   17 1
    21   15   36 1
    22   16   21 1
    23   17   18 1
    24   17   19 1
    25   17   37 1
    26   18   38 1
    27   19   20 1
    28   19   21 1
    29   19   39 1
    30   20   40 1
    31   21   22 1
    32   21   41 1
    33   22   23 ar
    34   22   31 ar
    35   23   24 ar
    36   23   42 1
    37   24   25 ar
    38   24   46 1
    39   25   26 ar
    40   25   31 ar
    41   26   27 2
    42   26   28 ar
    43   27   43 1
    44   28   29 ar
    45   28   45 1
    46   29   30 ar
    47   29   44 1
    48   30   31 ar
@<TRIPOS>SUBSTRUCTURE
     1 ATP         1 GROUP 0 A     ****
@<TRIPOS>MOLECULE
[[[3,4-dihydroxy-5-(6-imino-7,8-dihydro-1~{H}-purin-8-ylium-9-yl)tetrahydrofuran-2-yl]methoxy-oxido-phosphoryl]oxy-hydroxy-phosphoryl] hydrogen phosphate
   46    48     1     0     0
SMALL
USER_CHARGES

@<TRIPOS>ATOM
      1 PG         -2.0965    0.7599   -5.8708 P.3       1 ATP         1.5595
      2 O1G        -2.9599   -0.4517   -6.1433 O.co2     1 ATP        -0.8438
      3 O2G        -2.0717    1.9280   -6.8311 O.co2     1 ATP        -0.8438
      4 O3G        -2.4491    1.3226   -4.3791 O.3       1 ATP        -0.7800
      5 PB          0.7324    1.0973   -5.1086 P.3       1 ATP         1.9223
      6 O1B         1.1508    2.2169   -6.0151 O.2       1 ATP        -0.8953
      7 O2B         0.3626    1.5399   -3.5984 O.3       1 ATP        -0.8165
      8 O3B        -0.5668    0.2668   -5.5934 O.3       1 ATP        -0.8247
      9 PA          3.3342   -0.0516   -4.3262 P.3       1 ATP         1.6157
     10 O1A         4.1296    0.9783   -5.0986 O.co2     1 ATP        -0.8629
     11 O2A         3.8297   -1.4758   -4.1998 O.co2     1 ATP        -0.8629
     12 O3A         1.8112   -0.0892   -4.9136 O.3       1 ATP        -0.8191
     13 O5'         3.0213    0.5153   -2.8245 O.3       1 ATP        -0.5644
     14 C5'         2.2816   -0.2918   -1.9206 C.3       1 ATP         0.2062
     15 C4'         2.7248    0.0226   -0.4980 C.3       1 ATP         0.0971
     16 O4'         2.4697    1.4219   -0.2462 O.3       1 ATP        -0.3662
     17 C3'         1.9404   -0.7419    0.5596 C.3       1 ATP         0.0734
     18 O3'         2.7418   -0.8086    1.7389 O.3       1 ATP        -0.5671
     19 C2'         0.7477    0.1630    0.7858 C.3       1 ATP         0.0745
     20 O2'         0.1373   -0.0577    2.0407 O.3       1 ATP        -0.5794
     21 C1'         1.3733    1.5427    0.6747 C.3       1 ATP         0.3824
     22 N9          0.4520    2.5240    0.1767 N.pl3     1 ATP        -0.4324
     23 C8          0.2216    2.8192   -1.0985 C.ar      1 ATP         0.2662
     24 N7         -0.6906    3.7763   -1.2384 N.pl3     1 ATP        -0.4772
     25 C5         -1.0575    4.1037    0.0366 C.ar      1 ATP        -0.1305
     26 C6         -2.0291    5.0943    0.5330 C.ar      1 ATP         0.7186
     27 N6         -2.7093    5.8371   -0.2800 N.2       1 ATP        -0.8115
     28 N1         -2.1051    5.1136    1.9204 N.pl3     1 ATP        -0.8400
     29 C2         -1.3354    4.2774    2.7129 C.ar      1 ATP         0.6671
     30 N3         -0.4707    3.3945    2.2944 N.2       1 ATP        -0.5806
     31 C4         -0.3734    3.3525    0.9220 C.ar      1 ATP         0.2748
     32 HOG3       -2.3130    0.7272   -3.6115 H         1 ATP         0.4327
     33 HOB2       -0.3680    2.1790   -3.4566 H         1 ATP         0.4701
     34 H5'1        1.2163   -0.0770   -2.0471 H         1 ATP         0.0401
     35 H5'2        2.4655   -1.3443   -2.1563 H         1 ATP         0.0401
     36 H4'         3.8044   -0.1397   -0.4040 H         1 ATP         0.1136
     37 H3'         1.6764   -1.7639    0.2728 H         1 ATP         0.0693
     38 HO3'        3.5554   -1.2733    1.4914 H         1 ATP         0.4124
     39 H2'        -0.0011    0.0027    0.0003 H         1 ATP         0.0854
     40 HO2'       -0.6141    0.5574    2.1082 H         1 ATP         0.4367
     41 H1'         1.7826    1.9024    1.6451 H         1 ATP         0.1343
     42 H8          0.7125    2.3429   -1.9292 H         1 ATP         0.3302
     43 HN62       -3.3217    6.4517    0.2629 H         1 ATP         0.4160
     44 H2         -1.5188    4.4223    3.7890 H         1 ATP         0.0756
     45 H45        -2.7470    5.7627    2.3665 H         1 ATP         0.4587
     46 H46        -1.0305    4.1680   -2.1054 H         1 ATP         0.5254
@<TRIPOS>BOND
     1    1    2 2
     2    1    3 1
     3    1    4 1
     4    1    8 1
     5    4   32 1
     6    5    6 2
     7    5    7 1
     8    5    8 1
     9    5   12 1
    10    7   33 1
    11    9   10 2
    12    9   11 1
    13    9   12 1
    14    9   13 1
    15   13   14 1
    16   14   15 1
    17   14   34 1
    18   14   35 1
    19   15   16 1
    20   15   17 1
    21   15   36 1
    22   16   21 1
    23   17   18 1
    24   17   19 1
    25   17   37 1
    26   18   38 1
    27   19   20 1
    28   19   21 1
    29   19   39 1
    30   20   40 1
    31   21   22 1
    32   21   41 1
    33   22   23 ar
    34   22   31 ar
    35   23   24 ar
    36   23   42 1
    37   24   25 ar
    38   24   46 1
    39   25   26 ar
    40   25   31 ar
    41   26   27 2
    42   26   28 ar
    43   27   43 1
    44   28   29 ar
    45   28   45 1
    46   29   30 ar
    47   29   44 1
    48   30   31 ar
@<TRIPOS>SUBSTRUCTURE
     1 ATP         1 GROUP 0 A     ****
@<TRIPOS>MOLECULE
[[[3,4-dihydroxy-5-(6-imino-7,8-dihydro-1~{H}-purin-8-ylium-9-yl)tetrahydrofuran-2-yl]methoxy-oxido-phosphoryl]oxy-hydroxy-phosphoryl] hydrogen phosphate
   46    48     1     0     0
SMALL
USER_CHARGES

@<TRIPOS>ATOM
      1 PG         -1.2061    2.4164   -4.3809 P.3       1 ATP         1.5595
      2 O1G        -2.1765    1.3269   -4.7794 O.co2     1 ATP        -0.8438
      3 O2G        -1.6864    3.8260   -4.1166 O.co2     1 ATP        -0.8438
      4 O3G        -0.3580    1.9056   -3.0825 O.3       1 ATP        -0.7800
      5 PB          0.9862    1.2917   -6.0016 P.3       1 ATP         1.9223
      6 O1B         0.2964    0.1414   -6.6734 O.2       1 ATP        -0.8953
      7 O2B         2.0606    2.0772   -6.9194 O.3       1 ATP        -0.8165
      8 O3B         0.0098    2.4638   -5.4669 O.3       1 ATP        -0.8247
      9 PA          3.0673   -0.0858   -4.4292 P.3       1 ATP         1.6157
     10 O1A         4.2678    0.4442   -5.1827 O.co2     1 ATP        -0.8629
     11 O2A         2.5799   -1.5015   -4.6484 O.co2     1 ATP        -0.8629
     12 O3A         1.8103    0.9304   -4.6600 O.3       1 ATP        -0.8191
     13 O5'         3.2903    0.1346   -2.8241 O.3       1 ATP        -0.5644
     14 C5'         2.2816   -0.2918   -1.9206 C.3       1 ATP         0.2062
     15 C4'         2.7248    0.0226   -0.4980 C.3       1 ATP         0.0971
     16 O4'         2.4697    1.4219   -0.2462 O.3       1 ATP        -0.3662
     17 C3'         1.9404   -0.7419    0.5596 C.3       1 ATP         0.0734
     18 O3'         2.7418   -0.8086    1.7389 O.3       1 ATP        -0.5671
     19 C2'         0.7477    0.1630    0.7858 C.3       1 ATP         0.0745
     20 O2'         0.1373   -0.0577    2.0407 O.3       1 ATP        -0.5794
     21 C1'         1.3733    1.5427    0.6747 C.3       1 ATP         0.3824
     22 N9          0.4520    2.5240    0.1767 N.pl3     1 ATP        -0.4324
     23 C8          0.5691    3.2215   -0.9485 C.ar      1 ATP         0.2662
     24 N7         -0.4499    4.0551   -1.1342 N.pl3     1 ATP        -0.4772
     25 C5         -1.2618    3.8674   -0.0512 C.ar      1 ATP        -0.1305
     26 C6         -2.5420    4.5007    0.3120 C.ar      1 ATP         0.7186
     27 N6         -3.0874    5.3993   -0.4432 N.2       1 ATP        -0.8115
     28 N1         -3.0494    4.0205    1.5133 N.pl3     1 ATP        -0.8400
     29 C2         -2.3933    3.0527    2.2567 C.ar      1 ATP         0.6671
     30 N3         -1.2611    2.4796    1.9536 N.2       1 ATP        -0.5806
     31 C4         -0.7334    2.9358    0.7669 C.ar      1 ATP         0.2748
     32 HOG3        0.3181    2.5054   -2.7013 H         1 ATP         0.4327
     33 HOB2        2.8276    1.5833   -7.2801 H         1 ATP         0.4701
     34 H5'1        1.3514    0.2330   -2.1577 H         1 ATP         0.0401
     35 H5'2        2.1280   -1.3678   -2.0460 H         1 ATP         0.0401
     36 H4'         3.8044   -0.1397   -0.4040 H         1 ATP         0.1136
     37 H3'         1.6764   -1.7639    0.2728 H         1 ATP         0.0693
     38 HO3'        2.2232   -1.2979    2.3953 H         1 ATP         0.4124
     39 H2'        -0.0011    0.0027    0.0003 H         1 ATP         0.0854
     40 HO2'       -0.1563   -0.9855    2.0596 H         1 ATP         0.4367
     41 H1'         1.7826    1.9024    1.6451 H         1 ATP         0.1343
     42 H8          1.3912    3.1285   -1.6365 H         1 ATP         0.3302
     43 HN62       -3.9637    5.7084   -0.0142 H         1 ATP         0.4160
     44 H2         -2.9317    2.7866    3.1796 H         1 ATP         0.0756
     45 H45        -3.9307    4.3923    1.8559 H         1 ATP         0.4587
     46 H46        -0.5835    4.6857   -1.9122 H         1 ATP         0.5254
@<TRIPOS>BOND
     1    1    2 2
     2    1    3 1
     3    1    4 1
     4    1    8 1
     5    4   32 1
     6    5    6 2
     7    5    7 1
     8    5    8 1
     9    5   12 1
    10    7   33 1
    11    9   10 2
    12    9   11 1
    13    9   12 1
    14    9   13 1
    15   13   14 1
    16   14   15 1
    17   14   34 1
    18   14   35 1
    19   15   16 1
    20   15   17 1
    21   15   36 1
    22   16   21 1
    23   17   18 1
    24   17   19 1
    25   17   37 1
    26   18   38 1
    27   19   20 1
    28   19   21 1
    29   19   39 1
    30   20   40 1
    31   21   22 1
    32   21   41 1
    33   22   23 ar
    34   22   31 ar
    35   23   24 ar
    36   23   42 1
    37   24   25 ar
    38   24   46 1
    39   25   26 ar
    40   25   31 ar
    41   26   27 2
    42   26   28 ar
    43   27   43 1
    44   28   29 ar
    45   28   45 1
    46   29   30 ar
    47   29   44 1
    48   30   31 ar
@<TRIPOS>SUBSTRUCTURE
     1 ATP         1 GROUP 0 A     ****
