@<TRIPOS>MOLECULE
[[[5-(6-amino-1,8-dihydropurine-6,8-diylium-7-id-9-yl)-3,4-dihydroxy-tetrahydrofuran-2-yl]methoxy-hydroxy-phosphoryl]oxy-oxido-phosphoryl] phosphate
   45    47     1     0     0
SMALL
USER_CHARGES

@<TRIPOS>ATOM
      1 PG          1.3913    6.0375   -3.2948 P.3       1 ATP        -1.1921
      2 O1G         2.3580    6.7617   -4.2259 O.co2     1 ATP         0.3195
      3 O2G        -0.0816    6.3055   -3.5841 O.co2     1 ATP         0.3195
      4 O3G         1.7616    6.1273   -1.8178 O.co2     1 ATP         0.3195
      5 PB          2.9075    3.4717   -3.5819 P.3       1 ATP        -1.1062
      6 O1B         3.9169    3.9354   -4.6083 O.co2     1 ATP         0.3195
      7 O2B         3.2965    3.3053   -2.1294 O.co2     1 ATP         0.3195
      8 O3B         1.5960    4.4419   -3.6526 O.3       1 ATP         0.4672
      9 PA          2.8890    0.6159   -4.3157 P.3       1 ATP        -0.9715
     10 O1A         4.0157    0.5890   -5.3075 O.2       1 ATP         0.2707
     11 O2A         1.6246   -0.3119   -4.7129 O.3       1 ATP         0.0326
     12 O3A         2.2331    2.0795   -4.1013 O.3       1 ATP         0.4672
     13 O5'         3.2903    0.1346   -2.8241 O.3       1 ATP         0.1618
     14 C5'         2.2816   -0.2918   -1.9206 C.3       1 ATP         0.1504
     15 C4'         2.7248    0.0226   -0.4980 C.3       1 ATP         0.1111
     16 O4'         2.4697    1.4219   -0.2462 O.3       1 ATP        -0.1436
     17 C3'         1.9404   -0.7419    0.5596 C.3       1 ATP         0.1111
     18 O3'         2.7418   -0.8086    1.7389 O.3       1 ATP        -0.2728
     19 C2'         0.7477    0.1630    0.7858 C.3       1 ATP         0.1111
     20 O2'         0.1373   -0.0577    2.0407 O.3       1 ATP        -0.2728
     21 C1'         1.3733    1.5427    0.6747 C.3       1 ATP         0.2693
     22 N9          0.4520    2.5240    0.1767 N.pl3     1 ATP        -0.3222
     23 C8         -0.3054    2.4845   -1.1576 C.ar      1 ATP         0.1640
     24 N7         -1.0755    3.5806   -1.2691 N.2       1 ATP        -0.1640
     25 C5         -0.8043    4.2306   -0.0942 C.ar      1 ATP         0.0820
     26 C6         -1.4324    5.5335    0.2646 C.ar      1 ATP         0.1640
     27 N6         -2.2885    6.1054   -0.5675 N.pl3     1 ATP        -0.4916
     28 N1         -1.0537    6.0229    1.4478 N.pl3     1 ATP        -0.4390
     29 C2         -0.1096    5.3242    2.2908 C.ar      1 ATP         0.5691
     30 N3          0.4468    4.1904    1.9960 N.ar      1 ATP        -0.4283
     31 C4          0.0631    3.6855    0.7877 C.ar      1 ATP         0.2226
     32 HOA2        1.7609   -1.2767   -4.8258 H         1 ATP         0.2010
     33 H5'1        1.3514    0.2330   -2.1577 H         1 ATP        -0.0393
     34 H5'2        2.1280   -1.3678   -2.0460 H         1 ATP        -0.0393
     35 H4'         3.8040   -0.1399   -0.4044 H         1 ATP        -0.0393
     36 H3'         1.6768   -1.7637    0.2732 H         1 ATP        -0.0393
     37 HO3'        2.2231   -1.2979    2.3952 H         1 ATP         0.2010
     38 H2'         0.0002   -0.0084   -0.0014 H         1 ATP        -0.0393
     39 HO2'       -0.6132    0.5577    2.1063 H         1 ATP         0.2010
     40 H1'         1.7718    1.9211    1.6015 H         1 ATP        -0.0393
     41 H8         -0.2991    1.7413   -1.9611 H         1 ATP         0.0000
     42 HN61       -2.5167    5.6603   -1.4447 H         1 ATP         0.2048
     43 HN62       -2.7159    6.9882   -0.3270 H         1 ATP         0.2048
     44 H2          0.1059    5.8491    3.2340 H         1 ATP        -0.1292
     45 H45        -1.4532    6.9099    1.7401 H         1 ATP         0.2048
@<TRIPOS>BOND
     1    1    2 2
     2    1    3 1
     3    1    4 1
     4    1    8 1
     5    5    6 2
     6    5    7 1
     7    5    8 1
     8    5   12 1
     9    9   10 2
    10    9   11 1
    11    9   12 1
    12    9   13 1
    13   11   32 1
    14   13   14 1
    15   14   15 1
    16   14   33 1
    17   14   34 1
    18   15   16 1
    19   15   17 1
    20   15   35 1
    21   16   21 1
    22   17   18 1
    23   17   19 1
    24   17   36 1
    25   18   37 1
    26   19   20 1
    27   19   21 1
    28   19   38 1
    29   20   39 1
    30   21   22 1
    31   21   40 1
    32   22   23 ar
    33   22   31 ar
    34   23   24 ar
    35   23   41 1
    36   24   25 ar
    37   25   26 ar
    38   25   31 ar
    39   26   27 1
    40   26   28 ar
    41   27   42 1
    42   27   43 1
    43   28   29 ar
    44   28   45 1
    45   29   30 ar
    46   29   44 1
    47   30   31 ar
@<TRIPOS>SUBSTRUCTURE
     1 ATP         1 GROUP 0 A     ****
@<TRIPOS>MOLECULE
[[[5-(6-amino-1,8-dihydropurine-6,8-diylium-7-id-9-yl)-3,4-dihydroxy-tetrahydrofuran-2-yl]methoxy-hydroxy-phosphoryl]oxy-oxido-phosphoryl] phosphate
   45    47     1     0     0
SMALL
USER_CHARGES

@<TRIPOS>ATOM
      1 PG         -2.0839    0.2116   -4.0071 P.3       1 ATP        -1.1921
      2 O1G        -1.1520    0.2625   -2.8010 O.co2     1 ATP         0.3195
      3 O2G        -3.3296    1.0812   -3.8775 O.co2     1 ATP         0.3195
      4 O3G        -2.3593   -1.1966   -4.5245 O.co2     1 ATP         0.3195
      5 PB          0.2148    0.5236   -5.9000 P.3       1 ATP        -1.1062
      6 O1B         0.1708   -0.9205   -6.3476 O.co2     1 ATP         0.3195
      7 O2B         0.5977    1.6247   -6.8642 O.co2     1 ATP         0.3195
      8 O3B        -1.2191    0.9122   -5.2225 O.3       1 ATP         0.4672
      9 PA          2.7598    0.3945   -4.4166 P.3       1 ATP        -0.9715
     10 O1A         3.6063    1.3019   -5.2615 O.2       1 ATP         0.2707
     11 O2A         2.9406   -1.1809   -4.7370 O.3       1 ATP         0.0326
     12 O3A         1.1681    0.6348   -4.5802 O.3       1 ATP         0.4672
     13 O5'         3.0213    0.5153   -2.8245 O.3       1 ATP         0.1618
     14 C5'         2.2816   -0.2918   -1.9206 C.3       1 ATP         0.1504
     15 C4'         2.7248    0.0226   -0.4980 C.3       1 ATP         0.1111
     16 O4'         2.4697    1.4219   -0.2462 O.3       1 ATP        -0.1436
     17 C3'         1.9404   -0.7419    0.5596 C.3       1 ATP         0.1111
     18 O3'         2.7418   -0.8086    1.7389 O.3       1 ATP        -0.2728
     19 C2'         0.7477    0.1630    0.7858 C.3       1 ATP         0.1111
     20 O2'         0.1373   -0.0577    2.0407 O.3       1 ATP        -0.2728
     21 C1'         1.3733    1.5427    0.6747 C.3       1 ATP         0.2693
     22 N9          0.4520    2.5240    0.1767 N.pl3     1 ATP        -0.3222
     23 C8          0.1798    2.8712   -1.2933 C.ar      1 ATP         0.1640
     24 N7         -0.7494    3.8400   -1.3610 N.2       1 ATP        -0.1640
     25 C5         -1.0173    4.0603   -0.0358 C.ar      1 ATP         0.0820
     26 C6         -2.0105    5.0717    0.4241 C.ar      1 ATP         0.1640
     27 N6         -2.6723    5.7982   -0.4628 N.pl3     1 ATP        -0.4916
     28 N1         -2.1445    5.1522    1.7502 N.pl3     1 ATP        -0.4390
     29 C2         -1.3755    4.3143    2.6427 C.ar      1 ATP         0.5691
     30 N3         -0.5075    3.4292    2.2616 N.ar      1 ATP        -0.4283
     31 C4         -0.3667    3.3425    0.9070 C.ar      1 ATP         0.2226
     32 HOA2        3.8268   -1.5879   -4.6314 H         1 ATP         0.2010
     33 H5'1        1.2163   -0.0770   -2.0471 H         1 ATP        -0.0393
     34 H5'2        2.4655   -1.3443   -2.1563 H         1 ATP        -0.0393
     35 H4'         3.8040   -0.1399   -0.4044 H         1 ATP        -0.0393
     36 H3'         1.6768   -1.7637    0.2732 H         1 ATP        -0.0393
     37 HO3'        2.2231   -1.2979    2.3952 H         1 ATP         0.2010
     38 H2'         0.0002   -0.0084   -0.0014 H         1 ATP        -0.0393
     39 HO2'       -0.6132    0.5577    2.1063 H         1 ATP         0.2010
     40 H1'         1.7718    1.9211    1.6015 H         1 ATP        -0.0393
     41 H8          0.6089    2.4651   -2.2147 H         1 ATP         0.0000
     42 HN61       -2.5055    5.6680   -1.4503 H         1 ATP         0.2048
     43 HN62       -3.3462    6.4841   -0.1542 H         1 ATP         0.2048
     44 H2         -1.5932    4.4937    3.7066 H         1 ATP        -0.1292
     45 H45        -2.8098    5.8270    2.1160 H         1 ATP         0.2048
@<TRIPOS>BOND
     1    1    2 2
     2    1    3 1
     3    1    4 1
     4    1    8 1
     5    5    6 2
     6    5    7 1
     7    5    8 1
     8    5   12 1
     9    9   10 2
    10    9   11 1
    11    9   12 1
    12    9   13 1
    13   11   32 1
    14   13   14 1
    15   14   15 1
    16   14   33 1
    17   14   34 1
    18   15   16 1
    19   15   17 1
    20   15   35 1
    21   16   21 1
    22   17   18 1
    23   17   19 1
    24   17   36 1
    25   18   37 1
    26   19   20 1
    27   19   21 1
    28   19   38 1
    29   20   39 1
    30   21   22 1
    31   21   40 1
    32   22   23 ar
    33   22   31 ar
    34   23   24 ar
    35   23   41 1
    36   24   25 ar
    37   25   26 ar
    38   25   31 ar
    39   26   27 1
    40   26   28 ar
    41   27   42 1
    42   27   43 1
    43   28   29 ar
    44   28   45 1
    45   29   30 ar
    46   29   44 1
    47   30   31 ar
@<TRIPOS>SUBSTRUCTURE
     1 ATP         1 GROUP 0 A     ****
@<TRIPOS>MOLECULE
[[[5-(6-amino-1,8-dihydropurine-6,8-diylium-7-id-9-yl)-3,4-dihydroxy-tetrahydrofuran-2-yl]methoxy-hydroxy-phosphoryl]oxy-oxido-phosphoryl] phosphate
   45    47     1     0     0
SMALL
USER_CHARGES

@<TRIPOS>ATOM
      1 PG          2.5054    4.3812   -3.4019 P.3       1 ATP        -1.1921
      2 O1G         1.4061    5.3517   -3.8205 O.co2     1 ATP         0.3195
      3 O2G         2.8030    4.3737   -1.9065 O.co2     1 ATP         0.3195
      4 O3G         3.7493    4.4287   -4.2835 O.co2     1 ATP         0.3195
      5 PB          1.3277    2.1960   -5.0759 P.3       1 ATP        -1.1062
      6 O1B        -0.1746    2.3566   -5.1462 O.co2     1 ATP         0.3195
      7 O2B         2.2117    2.6484   -6.2172 O.co2     1 ATP         0.3195
      8 O3B         1.8710    2.8900   -3.7014 O.3       1 ATP         0.4672
      9 PA          3.0905   -0.0736   -4.4161 P.3       1 ATP        -0.9715
     10 O1A         4.2294    0.4201   -5.2606 O.2       1 ATP         0.2707
     11 O2A         2.7697   -1.6508   -4.5799 O.3       1 ATP         0.0326
     12 O3A         1.6732    0.6374   -4.7382 O.3       1 ATP         0.4672
     13 O5'         3.2903    0.1346   -2.8241 O.3       1 ATP         0.1618
     14 C5'         2.2816   -0.2918   -1.9206 C.3       1 ATP         0.1504
     15 C4'         2.7248    0.0226   -0.4980 C.3       1 ATP         0.1111
     16 O4'         2.4697    1.4219   -0.2462 O.3       1 ATP        -0.1436
     17 C3'         1.9404   -0.7419    0.5596 C.3       1 ATP         0.1111
     18 O3'         2.7418   -0.8086    1.7389 O.3       1 ATP        -0.2728
     19 C2'         0.7477    0.1630    0.7858 C.3       1 ATP         0.1111
     20 O2'         0.1373   -0.0577    2.0407 O.3       1 ATP        -0.2728
     21 C1'         1.3733    1.5427    0.6747 C.3       1 ATP         0.2693
     22 N9          0.4520    2.5240    0.1767 N.pl3     1 ATP        -0.3222
     23 C8         -0.3054    2.4845   -1.1576 C.ar      1 ATP         0.1640
     24 N7         -1.0755    3.5806   -1.2691 N.2       1 ATP        -0.1640
     25 C5         -0.8043    4.2306   -0.0942 C.ar      1 ATP         0.0820
     26 C6         -1.4324    5.5335    0.2646 C.ar      1 ATP         0.1640
     27 N6         -2.2885    6.1054   -0.5675 N.pl3     1 ATP        -0.4916
     28 N1         -1.0537    6.0229    1.4478 N.pl3     1 ATP        -0.4390
     29 C2         -0.1096    5.3242    2.2908 C.ar      1 ATP         0.5691
     30 N3          0.4468    4.1904    1.9960 N.ar      1 ATP        -0.4283
     31 C4          0.0631    3.6855    0.7877 C.ar      1 ATP         0.2226
     32 HOA2        3.4697   -2.3025   -4.3622 H         1 ATP         0.2010
     33 H5'1        1.3514    0.2330   -2.1577 H         1 ATP        -0.0393
     34 H5'2        2.1280   -1.3678   -2.0460 H         1 ATP        -0.0393
     35 H4'         3.8040   -0.1399   -0.4044 H         1 ATP        -0.0393
     36 H3'         1.6768   -1.7637    0.2732 H         1 ATP        -0.0393
     37 HO3'        2.2231   -1.2979    2.3952 H         1 ATP         0.2010
     38 H2'         0.0002   -0.0084   -0.0014 H         1 ATP        -0.0393
     39 HO2'       -0.6132    0.5577    2.1063 H         1 ATP         0.2010
     40 H1'         1.7718    1.9211    1.6015 H         1 ATP        -0.0393
     41 H8         -0.2991    1.7413   -1.9611 H         1 ATP         0.0000
     42 HN61       -2.5167    5.6603   -1.4447 H         1 ATP         0.2048
     43 HN62       -2.7159    6.9882   -0.3270 H         1 ATP         0.2048
     44 H2          0.1059    5.8491    3.2340 H         1 ATP        -0.1292
     45 H45        -1.4532    6.9099    1.7401 H         1 ATP         0.2048
@<TRIPOS>BOND
     1    1    2 2
     2    1    3 1
     3    1    4 1
     4    1    8 1
     5    5    6 2
     6    5    7 1
     7    5    8 1
     8    5   12 1
     9    9   10 2
    10    9   11 1
    11    9   12 1
    12    9   13 1
    13   11   32 1
    14   13   14 1
    15   14   15 1
    16   14   33 1
    17   14   34 1
    18   15   16 1
    19   15   17 1
    20   15   35 1
    21   16   21 1
    22   17   18 1
    23   17   19 1
    24   17   36 1
    25   18   37 1
    26   19   20 1
    27   19   21 1
    28   19   38 1
    29   20   39 1
    30   21   22 1
    31   21   40 1
    32   22   23 ar
    33   22   31 ar
    34   23   24 ar
    35   23   41 1
    36   24   25 ar
    37   25   26 ar
    38   25   31 ar
    39   26   27 1
    40   26   28 ar
    41   27   42 1
    42   27   43 1
    43   28   29 ar
    44   28   45 1
    45   29   30 ar
    46   29   44 1
    47   30   31 ar
@<TRIPOS>SUBSTRUCTURE
     1 ATP         1 GROUP 0 A     ****
@<TRIPOS>MOLECULE
[[[5-(6-amino-1,8-dihydropurine-6,8-diylium-7-id-9-yl)-3,4-dihydroxy-tetrahydrofuran-2-yl]methoxy-hydroxy-phosphoryl]oxy-oxido-phosphoryl] phosphate
   45    47     1     0     0
SMALL
USER_CHARGES

@<TRIPOS>ATOM
      1 PG          0.5996    2.1824   -8.3627 P.3       1 ATP        -1.1921
      2 O1G        -0.8235    2.7230   -8.2717 O.co2     1 ATP         0.3195
      3 O2G         1.6602    3.2436   -8.6344 O.co2     1 ATP         0.3195
      4 O3G         0.7380    0.9300   -9.2224 O.co2     1 ATP         0.3195
      5 PB          0.2148    0.5236   -5.9000 P.3       1 ATP        -1.1062
      6 O1B        -1.1742    1.0003   -5.5378 O.co2     1 ATP         0.3195
      7 O2B         0.4298   -0.8321   -6.5360 O.co2     1 ATP         0.3195
      8 O3B         0.9333    1.6494   -6.8394 O.3       1 ATP         0.4672
      9 PA          2.7598    0.3945   -4.4166 P.3       1 ATP        -0.9715
     10 O1A         3.6063    1.3019   -5.2615 O.2       1 ATP         0.2707
     11 O2A         2.9406   -1.1809   -4.7370 O.3       1 ATP         0.0326
     12 O3A         1.1681    0.6348   -4.5802 O.3       1 ATP         0.4672
     13 O5'         3.0213    0.5153   -2.8245 O.3       1 ATP         0.1618
     14 C5'         2.2816   -0.2918   -1.9206 C.3       1 ATP         0.1504
     15 C4'         2.7248    0.0226   -0.4980 C.3       1 ATP         0.1111
     16 O4'         2.4697    1.4219   -0.2462 O.3       1 ATP        -0.1436
     17 C3'         1.9404   -0.7419    0.5596 C.3       1 ATP         0.1111
     18 O3'         2.7418   -0.8086    1.7389 O.3       1 ATP        -0.2728
     19 C2'         0.7477    0.1630    0.7858 C.3       1 ATP         0.1111
     20 O2'         0.1373   -0.0577    2.0407 O.3       1 ATP        -0.2728
     21 C1'         1.3733    1.5427    0.6747 C.3       1 ATP         0.2693
     22 N9          0.4520    2.5240    0.1767 N.pl3     1 ATP        -0.3222
     23 C8          0.1798    2.8712   -1.2933 C.ar      1 ATP         0.1640
     24 N7         -0.7494    3.8400   -1.3610 N.2       1 ATP        -0.1640
     25 C5         -1.0173    4.0603   -0.0358 C.ar      1 ATP         0.0820
     26 C6         -2.0105    5.0717    0.4241 C.ar      1 ATP         0.1640
     27 N6         -2.6723    5.7982   -0.4628 N.pl3     1 ATP        -0.4916
     28 N1         -2.1445    5.1522    1.7502 N.pl3     1 ATP        -0.4390
     29 C2         -1.3755    4.3143    2.6427 C.ar      1 ATP         0.5691
     30 N3         -0.5075    3.4292    2.2616 N.ar      1 ATP        -0.4283
     31 C4         -0.3667    3.3425    0.9070 C.ar      1 ATP         0.2226
     32 HOA2        3.8268   -1.5879   -4.6314 H         1 ATP         0.2010
     33 H5'1        1.2163   -0.0770   -2.0471 H         1 ATP        -0.0393
     34 H5'2        2.4655   -1.3443   -2.1563 H         1 ATP        -0.0393
     35 H4'         3.8040   -0.1399   -0.4044 H         1 ATP        -0.0393
     36 H3'         1.6768   -1.7637    0.2732 H         1 ATP        -0.0393
     37 HO3'        2.2231   -1.2979    2.3952 H         1 ATP         0.2010
     38 H2'         0.0002   -0.0084   -0.0014 H         1 ATP        -0.0393
     39 HO2'       -0.6132    0.5577    2.1063 H         1 ATP         0.2010
     40 H1'         1.7718    1.9211    1.6015 H         1 ATP        -0.0393
     41 H8          0.6089    2.4651   -2.2147 H         1 ATP         0.0000
     42 HN61       -2.5055    5.6680   -1.4503 H         1 ATP         0.2048
     43 HN62       -3.3462    6.4841   -0.1542 H         1 ATP         0.2048
     44 H2         -1.5932    4.4937    3.7066 H         1 ATP        -0.1292
     45 H45        -2.8098    5.8270    2.1160 H         1 ATP         0.2048
@<TRIPOS>BOND
     1    1    2 2
     2    1    3 1
     3    1    4 1
     4    1    8 1
     5    5    6 2
     6    5    7 1
     7    5    8 1
     8    5   12 1
     9    9   10 2
    10    9   11 1
    11    9   12 1
    12    9   13 1
    13   11   32 1
    14   13   14 1
    15   14   15 1
    16   14   33 1
    17   14   34 1
    18   15   16 1
    19   15   17 1
    20   15   35 1
    21   16   21 1
    22   17   18 1
    23   17   19 1
    24   17   36 1
    25   18   37 1
    26   19   20 1
    27   19   21 1
    28   19   38 1
    29   20   39 1
    30   21   22 1
    31   21   40 1
    32   22   23 ar
    33   22   31 ar
    34   23   24 ar
    35   23   41 1
    36   24   25 ar
    37   25   26 ar
    38   25   31 ar
    39   26   27 1
    40   26   28 ar
    41   27   42 1
    42   27   43 1
    43   28   29 ar
    44   28   45 1
    45   29   30 ar
    46   29   44 1
    47   30   31 ar
@<TRIPOS>SUBSTRUCTURE
     1 ATP         1 GROUP 0 A     ****
@<TRIPOS>MOLECULE
[[[5-(6-amino-1,8-dihydropurine-6,8-diylium-7-id-9-yl)-3,4-dihydroxy-tetrahydrofuran-2-yl]methoxy-hydroxy-phosphoryl]oxy-oxido-phosphoryl] phosphate
   45    47     1     0     0
SMALL
USER_CHARGES

@<TRIPOS>ATOM
      1 PG         -0.1198   -1.9902   -7.4916 P.3       1 ATP        -1.1921
      2 O1G         0.3333   -1.2915   -8.7691 O.co2     1 ATP         0.3195
      3 O2G         0.5229   -3.3529   -7.2573 O.co2     1 ATP         0.3195
      4 O3G        -1.6286   -1.9675   -7.2689 O.co2     1 ATP         0.3195
      5 PB          0.2148    0.5236   -5.9000 P.3       1 ATP        -1.1062
      6 O1B         0.7959    1.3916   -6.9939 O.co2     1 ATP         0.3195
      7 O2B        -1.2263    0.6799   -5.4671 O.co2     1 ATP         0.3195
      8 O3B         0.4688   -1.0447   -6.2769 O.3       1 ATP         0.4672
      9 PA          2.7598    0.3945   -4.4166 P.3       1 ATP        -0.9715
     10 O1A         3.6063    1.3019   -5.2615 O.2       1 ATP         0.2707
     11 O2A         2.9406   -1.1809   -4.7370 O.3       1 ATP         0.0326
     12 O3A         1.1681    0.6348   -4.5802 O.3       1 ATP         0.4672
     13 O5'         3.0213    0.5153   -2.8245 O.3       1 ATP         0.1618
     14 C5'         2.2816   -0.2918   -1.9206 C.3       1 ATP         0.1504
     15 C4'         2.7248    0.0226   -0.4980 C.3       1 ATP         0.1111
     16 O4'         2.4697    1.4219   -0.2462 O.3       1 ATP        -0.1436
     17 C3'         1.9404   -0.7419    0.5596 C.3       1 ATP         0.1111
     18 O3'         2.7418   -0.8086    1.7389 O.3       1 ATP        -0.2728
     19 C2'         0.7477    0.1630    0.7858 C.3       1 ATP         0.1111
     20 O2'         0.1373   -0.0577    2.0407 O.3       1 ATP        -0.2728
     21 C1'         1.3733    1.5427    0.6747 C.3       1 ATP         0.2693
     22 N9          0.4520    2.5240    0.1767 N.pl3     1 ATP        -0.3222
     23 C8          0.1798    2.8712   -1.2933 C.ar      1 ATP         0.1640
     24 N7         -0.7494    3.8400   -1.3610 N.2       1 ATP        -0.1640
     25 C5         -1.0173    4.0603   -0.0358 C.ar      1 ATP         0.0820
     26 C6         -2.0105    5.0717    0.4241 C.ar      1 ATP         0.1640
     27 N6         -2.6723    5.7982   -0.4628 N.pl3     1 ATP        -0.4916
     28 N1         -2.1445    5.1522    1.7502 N.pl3     1 ATP        -0.4390
     29 C2         -1.3755    4.3143    2.6427 C.ar      1 ATP         0.5691
     30 N3         -0.5075    3.4292    2.2616 N.ar      1 ATP        -0.4283
     31 C4         -0.3667    3.3425    0.9070 C.ar      1 ATP         0.2226
     32 HOA2        2.7360   -1.5082   -5.6388 H         1 ATP         0.2010
     33 H5'1        1.2163   -0.0770   -2.0471 H         1 ATP        -0.0393
     34 H5'2        2.4655   -1.3443   -2.1563 H         1 ATP        -0.0393
     35 H4'         3.8040   -0.1399   -0.4044 H         1 ATP        -0.0393
     36 H3'         1.6768   -1.7637    0.2732 H         1 ATP        -0.0393
     37 HO3'        2.2231   -1.2979    2.3952 H         1 ATP         0.2010
     38 H2'         0.0002   -0.0084   -0.0014 H         1 ATP        -0.0393
     39 HO2'       -0.6132    0.5577    2.1063 H         1 ATP         0.2010
     40 H1'         1.7718    1.9211    1.6015 H         1 ATP        -0.0393
     41 H8          0.6089    2.4651   -2.2147 H         1 ATP         0.0000
     42 HN61       -2.5055    5.6680   -1.4503 H         1 ATP         0.2048
     43 HN62       -3.3462    6.4841   -0.1542 H         1 ATP         0.2048
     44 H2         -1.5932    4.4937    3.7066 H         1 ATP        -0.1292
     45 H45        -2.8098    5.8270    2.1160 H         1 ATP         0.2048
@<TRIPOS>BOND
     1    1    2 2
     2    1    3 1
     3    1    4 1
     4    1    8 1
     5    5    6 2
     6    5    7 1
     7    5    8 1
     8    5   12 1
     9    9   10 2
    10    9   11 1
    11    9   12 1
    12    9   13 1
    13   11   32 1
    14   13   14 1
    15   14   15 1
    16   14   33 1
    17   14   34 1
    18   15   16 1
    19   15   17 1
    20   15   35 1
    21   16   21 1
    22   17   18 1
    23   17   19 1
    24   17   36 1
    25   18   37 1
    26   19   20 1
    27   19   21 1
    28   19   38 1
    29   20   39 1
    30   21   22 1
    31   21   40 1
    32   22   23 ar
    33   22   31 ar
    34   23   24 ar
    35   23   41 1
    36   24   25 ar
    37   25   26 ar
    38   25   31 ar
    39   26   27 1
    40   26   28 ar
    41   27   42 1
    42   27   43 1
    43   28   29 ar
    44   28   45 1
    45   29   30 ar
    46   29   44 1
    47   30   31 ar
@<TRIPOS>SUBSTRUCTURE
     1 ATP         1 GROUP 0 A     ****
@<TRIPOS>MOLECULE
[[[5-(6-amino-1,8-dihydropurine-6,8-diylium-7-id-9-yl)-3,4-dihydroxy-tetrahydrofuran-2-yl]methoxy-hydroxy-phosphoryl]oxy-oxido-phosphoryl] phosphate
   45    47     1     0     0
SMALL
USER_CHARGES

@<TRIPOS>ATOM
      1 PG         -1.8130    2.1103   -6.3819 P.3       1 ATP        -1.1921
      2 O1G        -2.5079    0.8338   -6.8438 O.co2     1 ATP         0.3195
      3 O2G        -2.5761    2.8934   -5.3192 O.co2     1 ATP         0.3195
      4 O3G        -1.2683    2.9707   -7.5175 O.co2     1 ATP         0.3195
      5 PB          0.8082    0.6870   -6.1210 P.3       1 ATP        -1.1062
      6 O1B         0.3243   -0.7095   -6.4420 O.co2     1 ATP         0.3195
      7 O2B         1.5780    1.4964   -7.1412 O.co2     1 ATP         0.3195
      8 O3B        -0.4577    1.5815   -5.6076 O.3       1 ATP         0.4672
      9 PA          3.0905   -0.0736   -4.4161 P.3       1 ATP        -0.9715
     10 O1A         4.2294    0.4201   -5.2606 O.2       1 ATP         0.2707
     11 O2A         2.7697   -1.6508   -4.5799 O.3       1 ATP         0.0326
     12 O3A         1.6732    0.6374   -4.7382 O.3       1 ATP         0.4672
     13 O5'         3.2903    0.1346   -2.8241 O.3       1 ATP         0.1618
     14 C5'         2.2816   -0.2918   -1.9206 C.3       1 ATP         0.1504
     15 C4'         2.7248    0.0226   -0.4980 C.3       1 ATP         0.1111
     16 O4'         2.4697    1.4219   -0.2462 O.3       1 ATP        -0.1436
     17 C3'         1.9404   -0.7419    0.5596 C.3       1 ATP         0.1111
     18 O3'         2.7418   -0.8086    1.7389 O.3       1 ATP        -0.2728
     19 C2'         0.7477    0.1630    0.7858 C.3       1 ATP         0.1111
     20 O2'         0.1373   -0.0577    2.0407 O.3       1 ATP        -0.2728
     21 C1'         1.3733    1.5427    0.6747 C.3       1 ATP         0.2693
     22 N9          0.4520    2.5240    0.1767 N.pl3     1 ATP        -0.3222
     23 C8          0.1798    2.8712   -1.2933 C.ar      1 ATP         0.1640
     24 N7         -0.7494    3.8400   -1.3610 N.2       1 ATP        -0.1640
     25 C5         -1.0173    4.0603   -0.0358 C.ar      1 ATP         0.0820
     26 C6         -2.0105    5.0717    0.4241 C.ar      1 ATP         0.1640
     27 N6         -2.6723    5.7982   -0.4628 N.pl3     1 ATP        -0.4916
     28 N1         -2.1445    5.1522    1.7502 N.pl3     1 ATP        -0.4390
     29 C2         -1.3755    4.3143    2.6427 C.ar      1 ATP         0.5691
     30 N3         -0.5075    3.4292    2.2616 N.ar      1 ATP        -0.4283
     31 C4         -0.3667    3.3425    0.9070 C.ar      1 ATP         0.2226
     32 HOA2        3.4697   -2.3025   -4.3622 H         1 ATP         0.2010
     33 H5'1        1.3514    0.2330   -2.1577 H         1 ATP        -0.0393
     34 H5'2        2.1280   -1.3678   -2.0460 H         1 ATP        -0.0393
     35 H4'         3.8040   -0.1399   -0.4044 H         1 ATP        -0.0393
     36 H3'         1.6768   -1.7637    0.2732 H         1 ATP        -0.0393
     37 HO3'        2.2231   -1.2979    2.3952 H         1 ATP         0.2010
     38 H2'         0.0002   -0.0084   -0.0014 H         1 ATP        -0.0393
     39 HO2'       -0.6132    0.5577    2.1063 H         1 ATP         0.2010
     40 H1'         1.7718    1.9211    1.6015 H         1 ATP        -0.0393
     41 H8          0.6089    2.4651   -2.2147 H         1 ATP         0.0000
     42 HN61       -2.5055    5.6680   -1.4503 H         1 ATP         0.2048
     43 HN62       -3.3462    6.4841   -0.1542 H         1 ATP         0.2048
     44 H2         -1.5932    4.4937    3.7066 H         1 ATP        -0.1292
     45 H45        -2.8098    5.8270    2.1160 H         1 ATP         0.2048
@<TRIPOS>BOND
     1    1    2 2
     2    1    3 1
     3    1    4 1
     4    1    8 1
     5    5    6 2
     6    5    7 1
     7    5    8 1
     8    5   12 1
     9    9   10 2
    10    9   11 1
    11    9   12 1
    12    9   13 1
    13   11   32 1
    14   13   14 1
    15   14   15 1
    16   14   33 1
    17   14   34 1
    18   15   16 1
    19   15   17 1
    20   15   35 1
    21   16   21 1
    22   17   18 1
    23   17   19 1
    24   17   36 1
    25   18   37 1
    26   19   20 1
    27   19   21 1
    28   19   38 1
    29   20   39 1
    30   21   22 1
    31   21   40 1
    32   22   23 ar
    33   22   31 ar
    34   23   24 ar
    35   23   41 1
    36   24   25 ar
    37   25   26 ar
    38   25   31 ar
    39   26   27 1
    40   26   28 ar
    41   27   42 1
    42   27   43 1
    43   28   29 ar
    44   28   45 1
    45   29   30 ar
    46   29   44 1
    47   30   31 ar
@<TRIPOS>SUBSTRUCTURE
     1 ATP         1 GROUP 0 A     ****
@<TRIPOS>MOLECULE
[[[5-(6-amino-1,8-dihydropurine-6,8-diylium-7-id-9-yl)-3,4-dihydroxy-tetrahydrofuran-2-yl]methoxy-hydroxy-phosphoryl]oxy-oxido-phosphoryl] phosphate
   45    47     1     0     0
SMALL
USER_CHARGES

@<TRIPOS>ATOM
      1 PG         -1.4401    3.1936   -5.6316 P.3       1 ATP        -1.1921
      2 O1G        -1.0130    3.7496   -6.9859 O.co2     1 ATP         0.3195
      3 O2G        -2.7445    2.4044   -5.6579 O.co2     1 ATP         0.3195
      4 O3G        -1.3424    4.1960   -4.4862 O.co2     1 ATP         0.3195
      5 PB          1.3277    2.1960   -5.0759 P.3       1 ATP        -1.1062
      6 O1B         1.9538    2.5557   -6.4049 O.co2     1 ATP         0.3195
      7 O2B         1.5957    3.0269   -3.8404 O.co2     1 ATP         0.3195
      8 O3B        -0.2890    2.0716   -5.2682 O.3       1 ATP         0.4672
      9 PA          3.0905   -0.0736   -4.4161 P.3       1 ATP        -0.9715
     10 O1A         4.2294    0.4201   -5.2606 O.2       1 ATP         0.2707
     11 O2A         2.7697   -1.6508   -4.5799 O.3       1 ATP         0.0326
     12 O3A         1.6732    0.6374   -4.7382 O.3       1 ATP         0.4672
     13 O5'         3.2903    0.1346   -2.8241 O.3       1 ATP         0.1618
     14 C5'         2.2816   -0.2918   -1.9206 C.3       1 ATP         0.1504
     15 C4'         2.7248    0.0226   -0.4980 C.3       1 ATP         0.1111
     16 O4'         2.4697    1.4219   -0.2462 O.3       1 ATP        -0.1436
     17 C3'         1.9404   -0.7419    0.5596 C.3       1 ATP         0.1111
     18 O3'         2.7418   -0.8086    1.7389 O.3       1 ATP        -0.2728
     19 C2'         0.7477    0.1630    0.7858 C.3       1 ATP         0.1111
     20 O2'         0.1373   -0.0577    2.0407 O.3       1 ATP        -0.2728
     21 C1'         1.3733    1.5427    0.6747 C.3       1 ATP         0.2693
     22 N9          0.4520    2.5240    0.1767 N.pl3     1 ATP        -0.3222
     23 C8         -0.3054    2.4845   -1.1576 C.ar      1 ATP         0.1640
     24 N7         -1.0755    3.5806   -1.2691 N.2       1 ATP        -0.1640
     25 C5         -0.8043    4.2306   -0.0942 C.ar      1 ATP         0.0820
     26 C6         -1.4324    5.5335    0.2646 C.ar      1 ATP         0.1640
     27 N6         -2.2885    6.1054   -0.5675 N.pl3     1 ATP        -0.4916
     28 N1         -1.0537    6.0229    1.4478 N.pl3     1 ATP        -0.4390
     29 C2         -0.1096    5.3242    2.2908 C.ar      1 ATP         0.5691
     30 N3          0.4468    4.1904    1.9960 N.ar      1 ATP        -0.4283
     31 C4          0.0631    3.6855    0.7877 C.ar      1 ATP         0.2226
     32 HOA2        3.4697   -2.3025   -4.3622 H         1 ATP         0.2010
     33 H5'1        1.3514    0.2330   -2.1577 H         1 ATP        -0.0393
     34 H5'2        2.1280   -1.3678   -2.0460 H         1 ATP        -0.0393
     35 H4'         3.8040   -0.1399   -0.4044 H         1 ATP        -0.0393
     36 H3'         1.6768   -1.7637    0.2732 H         1 ATP        -0.0393
     37 HO3'        2.2231   -1.2979    2.3952 H         1 ATP         0.2010
     38 H2'         0.0002   -0.0084   -0.0014 H         1 ATP        -0.0393
     39 HO2'       -0.1554   -0.9852    2.0577 H         1 ATP         0.2010
     40 H1'         1.7718    1.9211    1.6015 H         1 ATP        -0.0393
     41 H8         -0.2991    1.7413   -1.9611 H         1 ATP         0.0000
     42 HN61       -2.5167    5.6603   -1.4447 H         1 ATP         0.2048
     43 HN62       -2.7159    6.9882   -0.3270 H         1 ATP         0.2048
     44 H2          0.1059    5.8491    3.2340 H         1 ATP        -0.1292
     45 H45        -1.4532    6.9099    1.7401 H         1 ATP         0.2048
@<TRIPOS>BOND
     1    1    2 2
     2    1    3 1
     3    1    4 1
     4    1    8 1
     5    5    6 2
     6    5    7 1
     7    5    8 1
     8    5   12 1
     9    9   10 2
    10    9   11 1
    11    9   12 1
    12    9   13 1
    13   11   32 1
    14   13   14 1
    15   14   15 1
    16   14   33 1
    17   14   34 1
    18   15   16 1
    19   15   17 1
    20   15   35 1
    21   16   21 1
    22   17   18 1
    23   17   19 1
    24   17   36 1
    25   18   37 1
    26   19   20 1
    27   19   21 1
    28   19   38 1
    29   20   39 1
    30   21   22 1
    31   21   40 1
    32   22   23 ar
    33   22   31 ar
    34   23   24 ar
    35   23   41 1
    36   24   25 ar
    37   25   26 ar
    38   25   31 ar
    39   26   27 1
    40   26   28 ar
    41   27   42 1
    42   27   43 1
    43   28   29 ar
    44   28   45 1
    45   29   30 ar
    46   29   44 1
    47   30   31 ar
@<TRIPOS>SUBSTRUCTURE
     1 ATP         1 GROUP 0 A     ****
@<TRIPOS>MOLECULE
[[[5-(6-amino-1,8-dihydropurine-6,8-diylium-7-id-9-yl)-3,4-dihydroxy-tetrahydrofuran-2-yl]methoxy-hydroxy-phosphoryl]oxy-oxido-phosphoryl] phosphate
   45    47     1     0     0
SMALL
USER_CHARGES

@<TRIPOS>ATOM
      1 PG         -3.1049    2.3254   -3.8446 P.3       1 ATP        -1.1921
      2 O1G        -3.5428    1.5013   -5.0507 O.co2     1 ATP         0.3195
      3 O2G        -3.6975    1.8636   -2.5178 O.co2     1 ATP         0.3195
      4 O3G        -3.1681    3.8337   -4.0628 O.co2     1 ATP         0.3195
      5 PB         -0.2459    2.2552   -4.7307 P.3       1 ATP        -1.1062
      6 O1B        -0.4166    1.3453   -5.9268 O.co2     1 ATP         0.3195
      7 O2B        -0.0547    3.7453   -4.9089 O.co2     1 ATP         0.3195
      8 O3B        -1.4920    2.0183   -3.7026 O.3       1 ATP         0.4672
      9 PA          2.3603    0.9703   -4.2294 P.3       1 ATP        -0.9715
     10 O1A         3.2464    1.8206   -5.0928 O.2       1 ATP         0.2707
     11 O2A         1.8826   -0.4137   -4.9178 O.3       1 ATP         0.0326
     12 O3A         0.9707    1.6829   -3.8059 O.3       1 ATP         0.4672
     13 O5'         3.0213    0.5153   -2.8245 O.3       1 ATP         0.1618
     14 C5'         2.2816   -0.2918   -1.9206 C.3       1 ATP         0.1504
     15 C4'         2.7248    0.0226   -0.4980 C.3       1 ATP         0.1111
     16 O4'         2.4697    1.4219   -0.2462 O.3       1 ATP        -0.1436
     17 C3'         1.9404   -0.7419    0.5596 C.3       1 ATP         0.1111
     18 O3'         2.7418   -0.8086    1.7389 O.3       1 ATP        -0.2728
     19 C2'         0.7477    0.1630    0.7858 C.3       1 ATP         0.1111
     20 O2'         0.1373   -0.0577    2.0407 O.3       1 ATP        -0.2728
     21 C1'         1.3733    1.5427    0.6747 C.3       1 ATP         0.2693
     22 N9          0.4520    2.5240    0.1767 N.pl3     1 ATP        -0.3222
     23 C8          0.5793    3.3338   -1.1209 C.ar      1 ATP         0.1640
     24 N7         -0.4807    4.1508   -1.2458 N.2       1 ATP        -0.1640
     25 C5         -1.1921    3.8572   -0.1126 C.ar      1 ATP         0.0820
     26 C6         -2.4855    4.5203    0.2163 C.ar      1 ATP         0.1640
     27 N6         -2.9873    5.4319   -0.6020 N.pl3     1 ATP        -0.4916
     28 N1         -3.0414    4.1119    1.3596 N.pl3     1 ATP        -0.4390
     29 C2         -2.4169    3.1071    2.1904 C.ar      1 ATP         0.5691
     30 N3         -1.2928    2.5191    1.9210 N.ar      1 ATP        -0.4283
     31 C4         -0.7202    2.9326    0.7534 C.ar      1 ATP         0.2226
     32 HOA2        2.5619   -1.0633   -5.1981 H         1 ATP         0.2010
     33 H5'1        1.2163   -0.0770   -2.0471 H         1 ATP        -0.0393
     34 H5'2        2.4655   -1.3443   -2.1563 H         1 ATP        -0.0393
     35 H4'         3.8040   -0.1399   -0.4044 H         1 ATP        -0.0393
     36 H3'         1.6768   -1.7637    0.2732 H         1 ATP        -0.0393
     37 HO3'        2.2231   -1.2979    2.3952 H         1 ATP         0.2010
     38 H2'         0.0002   -0.0084   -0.0014 H         1 ATP        -0.0393
     39 HO2'       -0.1554   -0.9852    2.0577 H         1 ATP         0.2010
     40 H1'         1.7718    1.9211    1.6015 H         1 ATP        -0.0393
     41 H8          1.3565    3.3309   -1.8916 H         1 ATP         0.0000
     42 HN61       -2.4952    5.6785   -1.4487 H         1 ATP         0.2048
     43 HN62       -3.8637    5.8828   -0.3819 H         1 ATP         0.2048
     44 H2         -2.9911    2.8734    3.1000 H         1 ATP        -0.1292
     45 H45        -3.9253    4.5332    1.6302 H         1 ATP         0.2048
@<TRIPOS>BOND
     1    1    2 2
     2    1    3 1
     3    1    4 1
     4    1    8 1
     5    5    6 2
     6    5    7 1
     7    5    8 1
     8    5   12 1
     9    9   10 2
    10    9   11 1
    11    9   12 1
    12    9   13 1
    13   11   32 1
    14   13   14 1
    15   14   15 1
    16   14   33 1
    17   14   34 1
    18   15   16 1
    19   15   17 1
    20   15   35 1
    21   16   21 1
    22   17   18 1
    23   17   19 1
    24   17   36 1
    25   18   37 1
    26   19   20 1
    27   19   21 1
    28   19   38 1
    29   20   39 1
    30   21   22 1
    31   21   40 1
    32   22   23 ar
    33   22   31 ar
    34   23   24 ar
    35   23   41 1
    36   24   25 ar
    37   25   26 ar
    38   25   31 ar
    39   26   27 1
    40   26   28 ar
    41   27   42 1
    42   27   43 1
    43   28   29 ar
    44   28   45 1
    45   29   30 ar
    46   29   44 1
    47   30   31 ar
@<TRIPOS>SUBSTRUCTURE
     1 ATP         1 GROUP 0 A     ****
@<TRIPOS>MOLECULE
[[[5-(6-amino-1,8-dihydropurine-6,8-diylium-7-id-9-yl)-3,4-dihydroxy-tetrahydrofuran-2-yl]methoxy-hydroxy-phosphoryl]oxy-oxido-phosphoryl] phosphate
   45    47     1     0     0
SMALL
USER_CHARGES

@<TRIPOS>ATOM
      1 PG          1.1573    3.7983   -5.6171 P.3       1 ATP        -1.1921
      2 O1G         1.9282    3.4725   -4.3422 O.co2     1 ATP         0.3195
      3 O2G         1.9234    4.6623   -6.6128 O.co2     1 ATP         0.3195
      4 O3G        -0.2804    4.2490   -5.3795 O.co2     1 ATP         0.3195
      5 PB          0.2806    0.9508   -5.9127 P.3       1 ATP        -1.1062
      6 O1B        -1.1426    1.2414   -5.4910 O.co2     1 ATP         0.3195
      7 O2B         0.5825   -0.1048   -6.9534 O.co2     1 ATP         0.3195
      8 O3B         0.9909    2.3457   -6.3774 O.3       1 ATP         0.4672
      9 PA          2.7598    0.3945   -4.4166 P.3       1 ATP        -0.9715
     10 O1A         3.6063    1.3019   -5.2615 O.2       1 ATP         0.2707
     11 O2A         2.9406   -1.1809   -4.7370 O.3       1 ATP         0.0326
     12 O3A         1.1681    0.6348   -4.5802 O.3       1 ATP         0.4672
     13 O5'         3.0213    0.5153   -2.8245 O.3       1 ATP         0.1618
     14 C5'         2.2816   -0.2918   -1.9206 C.3       1 ATP         0.1504
     15 C4'         2.7248    0.0226   -0.4980 C.3       1 ATP         0.1111
     16 O4'         2.4697    1.4219   -0.2462 O.3       1 ATP        -0.1436
     17 C3'         1.9404   -0.7419    0.5596 C.3       1 ATP         0.1111
     18 O3'         2.7418   -0.8086    1.7389 O.3       1 ATP        -0.2728
     19 C2'         0.7477    0.1630    0.7858 C.3       1 ATP         0.1111
     20 O2'         0.1373   -0.0577    2.0407 O.3       1 ATP        -0.2728
     21 C1'         1.3733    1.5427    0.6747 C.3       1 ATP         0.2693
     22 N9          0.4520    2.5240    0.1767 N.pl3     1 ATP        -0.3222
     23 C8          0.1798    2.8712   -1.2933 C.ar      1 ATP         0.1640
     24 N7         -0.7494    3.8400   -1.3610 N.2       1 ATP        -0.1640
     25 C5         -1.0173    4.0603   -0.0358 C.ar      1 ATP         0.0820
     26 C6         -2.0105    5.0717    0.4241 C.ar      1 ATP         0.1640
     27 N6         -2.6723    5.7982   -0.4628 N.pl3     1 ATP        -0.4916
     28 N1         -2.1445    5.1522    1.7502 N.pl3     1 ATP        -0.4390
     29 C2         -1.3755    4.3143    2.6427 C.ar      1 ATP         0.5691
     30 N3         -0.5075    3.4292    2.2616 N.ar      1 ATP        -0.4283
     31 C4         -0.3667    3.3425    0.9070 C.ar      1 ATP         0.2226
     32 HOA2        3.8268   -1.5879   -4.6314 H         1 ATP         0.2010
     33 H5'1        1.2163   -0.0770   -2.0471 H         1 ATP        -0.0393
     34 H5'2        2.4655   -1.3443   -2.1563 H         1 ATP        -0.0393
     35 H4'         3.8040   -0.1399   -0.4044 H         1 ATP        -0.0393
     36 H3'         1.6768   -1.7637    0.2732 H         1 ATP        -0.0393
     37 HO3'        2.2231   -1.2979    2.3952 H         1 ATP         0.2010
     38 H2'         0.0002   -0.0084   -0.0014 H         1 ATP        -0.0393
     39 HO2'       -0.6132    0.5577    2.1063 H         1 ATP         0.2010
     40 H1'         1.7718    1.9211    1.6015 H         1 ATP        -0.0393
     41 H8          0.6089    2.4651   -2.2147 H         1 ATP         0.0000
     42 HN61       -2.5055    5.6680   -1.4503 H         1 ATP         0.2048
     43 HN62       -3.3462    6.4841   -0.1542 H         1 ATP         0.2048
     44 H2         -1.5932    4.4937    3.7066 H         1 ATP        -0.1292
     45 H45        -2.8098    5.8270    2.1160 H         1 ATP         0.2048
@<TRIPOS>BOND
     1    1    2 2
     2    1    3 1
     3    1    4 1
     4    1    8 1
     5    5    6 2
     6    5    7 1
     7    5    8 1
     8    5   12 1
     9    9   10 2
    10    9   11 1
    11    9   12 1
    12    9   13 1
    13   11   32 1
    14   13   14 1
    15   14   15 1
    16   14   33 1
    17   14   34 1
    18   15   16 1
    19   15   17 1
    20   15   35 1
    21   16   21 1
    22   17   18 1
    23   17   19 1
    24   17   36 1
    25   18   37 1
    26   19   20 1
    27   19   21 1
    28   19   38 1
    29   20   39 1
    30   21   22 1
    31   21   40 1
    32   22   23 ar
    33   22   31 ar
    34   23   24 ar
    35   23   41 1
    36   24   25 ar
    37   25   26 ar
    38   25   31 ar
    39   26   27 1
    40   26   28 ar
    41   27   42 1
    42   27   43 1
    43   28   29 ar
    44   28   45 1
    45   29   30 ar
    46   29   44 1
    47   30   31 ar
@<TRIPOS>SUBSTRUCTURE
     1 ATP         1 GROUP 0 A     ****
@<TRIPOS>MOLECULE
[[[5-(6-amino-1,8-dihydropurine-6,8-diylium-7-id-9-yl)-3,4-dihydroxy-tetrahydrofuran-2-yl]methoxy-hydroxy-phosphoryl]oxy-oxido-phosphoryl] phosphate
   45    47     1     0     0
SMALL
USER_CHARGES

@<TRIPOS>ATOM
      1 PG         -0.0771    5.4009   -4.7154 P.3       1 ATP        -1.1921
      2 O1G        -1.5329    4.9822   -4.8915 O.co2     1 ATP         0.3195
      3 O2G         0.1761    6.3106   -3.5182 O.co2     1 ATP         0.3195
      4 O3G         0.5997    5.8628   -6.0019 O.co2     1 ATP         0.3195
      5 PB          0.8690    2.5942   -5.1529 P.3       1 ATP        -1.1062
      6 O1B        -0.4846    1.9264   -5.2493 O.co2     1 ATP         0.3195
      7 O2B         1.6978    2.8530   -6.3918 O.co2     1 ATP         0.3195
      8 O3B         0.7090    4.0017   -4.3409 O.3       1 ATP         0.4672
      9 PA          2.8890    0.6159   -4.3157 P.3       1 ATP        -0.9715
     10 O1A         4.0478    1.0413   -5.1702 O.2       1 ATP         0.2707
     11 O2A         2.0278   -0.6137   -4.9188 O.3       1 ATP         0.0326
     12 O3A         1.7834    1.7734   -4.0790 O.3       1 ATP         0.4672
     13 O5'         3.2903    0.1346   -2.8241 O.3       1 ATP         0.1618
     14 C5'         2.2816   -0.2918   -1.9206 C.3       1 ATP         0.1504
     15 C4'         2.7248    0.0226   -0.4980 C.3       1 ATP         0.1111
     16 O4'         2.4697    1.4219   -0.2462 O.3       1 ATP        -0.1436
     17 C3'         1.9404   -0.7419    0.5596 C.3       1 ATP         0.1111
     18 O3'         2.7418   -0.8086    1.7389 O.3       1 ATP        -0.2728
     19 C2'         0.7477    0.1630    0.7858 C.3       1 ATP         0.1111
     20 O2'         0.1373   -0.0577    2.0407 O.3       1 ATP        -0.2728
     21 C1'         1.3733    1.5427    0.6747 C.3       1 ATP         0.2693
     22 N9          0.4520    2.5240    0.1767 N.pl3     1 ATP        -0.3222
     23 C8         -0.3054    2.4845   -1.1576 C.ar      1 ATP         0.1640
     24 N7         -1.0755    3.5806   -1.2691 N.2       1 ATP        -0.1640
     25 C5         -0.8043    4.2306   -0.0942 C.ar      1 ATP         0.0820
     26 C6         -1.4324    5.5335    0.2646 C.ar      1 ATP         0.1640
     27 N6         -2.2885    6.1054   -0.5675 N.pl3     1 ATP        -0.4916
     28 N1         -1.0537    6.0229    1.4478 N.pl3     1 ATP        -0.4390
     29 C2         -0.1096    5.3242    2.2908 C.ar      1 ATP         0.5691
     30 N3          0.4468    4.1904    1.9960 N.ar      1 ATP        -0.4283
     31 C4          0.0631    3.6855    0.7877 C.ar      1 ATP         0.2226
     32 HOA2        2.4748   -1.4716   -5.0808 H         1 ATP         0.2010
     33 H5'1        1.3514    0.2330   -2.1577 H         1 ATP        -0.0393
     34 H5'2        2.1280   -1.3678   -2.0460 H         1 ATP        -0.0393
     35 H4'         3.8040   -0.1399   -0.4044 H         1 ATP        -0.0393
     36 H3'         1.6768   -1.7637    0.2732 H         1 ATP        -0.0393
     37 HO3'        2.2231   -1.2979    2.3952 H         1 ATP         0.2010
     38 H2'         0.0002   -0.0084   -0.0014 H         1 ATP        -0.0393
     39 HO2'       -0.6132    0.5577    2.1063 H         1 ATP         0.2010
     40 H1'         1.7718    1.9211    1.6015 H         1 ATP        -0.0393
     41 H8         -0.2991    1.7413   -1.9611 H         1 ATP         0.0000
     42 HN61       -2.5167    5.6603   -1.4447 H         1 ATP         0.2048
     43 HN62       -2.7159    6.9882   -0.3270 H         1 ATP         0.2048
     44 H2          0.1059    5.8491    3.2340 H         1 ATP        -0.1292
     45 H45        -1.4532    6.9099    1.7401 H         1 ATP         0.2048
@<TRIPOS>BOND
     1    1    2 2
     2    1    3 1
     3    1    4 1
     4    1    8 1
     5    5    6 2
     6    5    7 1
     7    5    8 1
     8    5   12 1
     9    9   10 2
    10    9   11 1
    11    9   12 1
    12    9   13 1
    13   11   32 1
    14   13   14 1
    15   14   15 1
    16   14   33 1
    17   14   34 1
    18   15   16 1
    19   15   17 1
    20   15   35 1
    21   16   21 1
    22   17   18 1
    23   17   19 1
    24   17   36 1
    25   18   37 1
    26   19   20 1
    27   19   21 1
    28   19   38 1
    29   20   39 1
    30   21   22 1
    31   21   40 1
    32   22   23 ar
    33   22   31 ar
    34   23   24 ar
    35   23   41 1
    36   24   25 ar
    37   25   26 ar
    38   25   31 ar
    39   26   27 1
    40   26   28 ar
    41   27   42 1
    42   27   43 1
    43   28   29 ar
    44   28   45 1
    45   29   30 ar
    46   29   44 1
    47   30   31 ar
@<TRIPOS>SUBSTRUCTURE
     1 ATP         1 GROUP 0 A     ****
@<TRIPOS>MOLECULE
[[[5-(6-amino-1,8-dihydropurine-6,8-diylium-7-id-9-yl)-3,4-dihydroxy-tetrahydrofuran-2-yl]methoxy-hydroxy-phosphoryl]oxy-oxido-phosphoryl] phosphate
   45    47     1     0     0
SMALL
USER_CHARGES

@<TRIPOS>ATOM
      1 PG          3.7889    1.4857   -6.2312 P.3       1 ATP        -1.1921
      2 O1G         4.5180    2.2752   -5.1493 O.co2     1 ATP         0.3195
      3 O2G         4.0781    1.9519   -7.6539 O.co2     1 ATP         0.3195
      4 O3G         2.3099    1.2498   -5.9424 O.co2     1 ATP         0.3195
      5 PB          4.5188   -1.1155   -4.9408 P.3       1 ATP        -1.1062
      6 O1B         5.1087   -2.4020   -5.4743 O.co2     1 ATP         0.3195
      7 O2B         5.1072   -0.4369   -3.7235 O.co2     1 ATP         0.3195
      8 O3B         4.4480   -0.0227   -6.1519 O.3       1 ATP         0.4672
      9 PA          2.1490   -2.2861   -3.6338 P.3       1 ATP        -0.9715
     10 O1A         2.4557   -3.7477   -3.7869 O.2       1 ATP         0.2707
     11 O2A         0.5916   -1.9026   -3.8458 O.3       1 ATP         0.0326
     12 O3A         2.9212   -1.3352   -4.6909 O.3       1 ATP         0.4672
     13 O5'         2.5245   -1.6648   -2.1878 O.3       1 ATP         0.1618
     14 C5'         2.2816   -0.2918   -1.9206 C.3       1 ATP         0.1504
     15 C4'         2.7248    0.0226   -0.4980 C.3       1 ATP         0.1111
     16 O4'         2.4697    1.4219   -0.2462 O.3       1 ATP        -0.1436
     17 C3'         1.9404   -0.7419    0.5596 C.3       1 ATP         0.1111
     18 O3'         2.7418   -0.8086    1.7389 O.3       1 ATP        -0.2728
     19 C2'         0.7477    0.1630    0.7858 C.3       1 ATP         0.1111
     20 O2'         0.1373   -0.0577    2.0407 O.3       1 ATP        -0.2728
     21 C1'         1.3733    1.5427    0.6747 C.3       1 ATP         0.2693
     22 N9          0.4520    2.5240    0.1767 N.pl3     1 ATP        -0.3222
     23 C8          0.1798    2.8712   -1.2933 C.ar      1 ATP         0.1640
     24 N7         -0.7494    3.8400   -1.3610 N.2       1 ATP        -0.1640
     25 C5         -1.0173    4.0603   -0.0358 C.ar      1 ATP         0.0820
     26 C6         -2.0105    5.0717    0.4241 C.ar      1 ATP         0.1640
     27 N6         -2.6723    5.7982   -0.4628 N.pl3     1 ATP        -0.4916
     28 N1         -2.1445    5.1522    1.7502 N.pl3     1 ATP        -0.4390
     29 C2         -1.3755    4.3143    2.6427 C.ar      1 ATP         0.5691
     30 N3         -0.5075    3.4292    2.2616 N.ar      1 ATP        -0.4283
     31 C4         -0.3667    3.3425    0.9070 C.ar      1 ATP         0.2226
     32 HOA2       -0.0807   -2.3050   -3.2557 H         1 ATP         0.2010
     33 H5'1        2.8432    0.3119   -2.6398 H         1 ATP        -0.0393
     34 H5'2        1.2128   -0.0927   -2.0428 H         1 ATP        -0.0393
     35 H4'         3.8040   -0.1399   -0.4044 H         1 ATP        -0.0393
     36 H3'         1.6768   -1.7637    0.2732 H         1 ATP        -0.0393
     37 HO3'        2.2231   -1.2979    2.3952 H         1 ATP         0.2010
     38 H2'         0.0002   -0.0084   -0.0014 H         1 ATP        -0.0393
     39 HO2'       -0.6132    0.5577    2.1063 H         1 ATP         0.2010
     40 H1'         1.7718    1.9211    1.6015 H         1 ATP        -0.0393
     41 H8          0.6089    2.4651   -2.2147 H         1 ATP         0.0000
     42 HN61       -2.5055    5.6680   -1.4503 H         1 ATP         0.2048
     43 HN62       -3.3462    6.4841   -0.1542 H         1 ATP         0.2048
     44 H2         -1.5932    4.4937    3.7066 H         1 ATP        -0.1292
     45 H45        -2.8098    5.8270    2.1160 H         1 ATP         0.2048
@<TRIPOS>BOND
     1    1    2 2
     2    1    3 1
     3    1    4 1
     4    1    8 1
     5    5    6 2
     6    5    7 1
     7    5    8 1
     8    5   12 1
     9    9   10 2
    10    9   11 1
    11    9   12 1
    12    9   13 1
    13   11   32 1
    14   13   14 1
    15   14   15 1
    16   14   33 1
    17   14   34 1
    18   15   16 1
    19   15   17 1
    20   15   35 1
    21   16   21 1
    22   17   18 1
    23   17   19 1
    24   17   36 1
    25   18   37 1
    26   19   20 1
    27   19   21 1
    28   19   38 1
    29   20   39 1
    30   21   22 1
    31   21   40 1
    32   22   23 ar
    33   22   31 ar
    34   23   24 ar
    35   23   41 1
    36   24   25 ar
    37   25   26 ar
    38   25   31 ar
    39   26   27 1
    40   26   28 ar
    41   27   42 1
    42   27   43 1
    43   28   29 ar
    44   28   45 1
    45   29   30 ar
    46   29   44 1
    47   30   31 ar
@<TRIPOS>SUBSTRUCTURE
     1 ATP         1 GROUP 0 A     ****
@<TRIPOS>MOLECULE
[[[5-(6-amino-1,8-dihydropurine-6,8-diylium-7-id-9-yl)-3,4-dihydroxy-tetrahydrofuran-2-yl]methoxy-hydroxy-phosphoryl]oxy-oxido-phosphoryl] phosphate
   45    47     1     0     0
SMALL
USER_CHARGES

@<TRIPOS>ATOM
      1 PG          1.4411    1.1322   -6.4956 P.3       1 ATP        -1.1921
      2 O1G         2.1538    1.2591   -5.1534 O.co2     1 ATP         0.3195
      3 O2G         2.1987    1.7402   -7.6708 O.co2     1 ATP         0.3195
      4 O3G        -0.0392    1.4978   -6.4536 O.co2     1 ATP         0.3195
      5 PB          0.8072   -1.7482   -5.9799 P.3       1 ATP        -1.1062
      6 O1B        -0.6577   -1.4810   -5.7147 O.co2     1 ATP         0.3195
      7 O2B         1.2543   -3.0260   -6.6553 O.co2     1 ATP         0.3195
      8 O3B         1.4352   -0.4866   -6.8046 O.3       1 ATP         0.4672
      9 PA          1.5771   -2.4667   -3.2257 P.3       1 ATP        -0.9715
     10 O1A         1.9405   -3.9104   -3.4192 O.2       1 ATP         0.2707
     11 O2A         0.0761   -2.2218   -2.6739 O.3       1 ATP         0.0326
     12 O3A         1.6317   -1.5847   -4.5811 O.3       1 ATP         0.4672
     13 O5'         2.5245   -1.6648   -2.1878 O.3       1 ATP         0.1618
     14 C5'         2.2816   -0.2918   -1.9206 C.3       1 ATP         0.1504
     15 C4'         2.7248    0.0226   -0.4980 C.3       1 ATP         0.1111
     16 O4'         2.4697    1.4219   -0.2462 O.3       1 ATP        -0.1436
     17 C3'         1.9404   -0.7419    0.5596 C.3       1 ATP         0.1111
     18 O3'         2.7418   -0.8086    1.7389 O.3       1 ATP        -0.2728
     19 C2'         0.7477    0.1630    0.7858 C.3       1 ATP         0.1111
     20 O2'         0.1373   -0.0577    2.0407 O.3       1 ATP        -0.2728
     21 C1'         1.3733    1.5427    0.6747 C.3       1 ATP         0.2693
     22 N9          0.4520    2.5240    0.1767 N.pl3     1 ATP        -0.3222
     23 C8          0.1798    2.8712   -1.2933 C.ar      1 ATP         0.1640
     24 N7         -0.7494    3.8400   -1.3610 N.2       1 ATP        -0.1640
     25 C5         -1.0173    4.0603   -0.0358 C.ar      1 ATP         0.0820
     26 C6         -2.0105    5.0717    0.4241 C.ar      1 ATP         0.1640
     27 N6         -2.6723    5.7982   -0.4628 N.pl3     1 ATP        -0.4916
     28 N1         -2.1445    5.1522    1.7502 N.pl3     1 ATP        -0.4390
     29 C2         -1.3755    4.3143    2.6427 C.ar      1 ATP         0.5691
     30 N3         -0.5075    3.4292    2.2616 N.ar      1 ATP        -0.4283
     31 C4         -0.3667    3.3425    0.9070 C.ar      1 ATP         0.2226
     32 HOA2       -0.1792   -2.6042   -1.8075 H         1 ATP         0.2010
     33 H5'1        2.8432    0.3119   -2.6398 H         1 ATP        -0.0393
     34 H5'2        1.2128   -0.0927   -2.0428 H         1 ATP        -0.0393
     35 H4'         3.8040   -0.1399   -0.4044 H         1 ATP        -0.0393
     36 H3'         1.6768   -1.7637    0.2732 H         1 ATP        -0.0393
     37 HO3'        2.2231   -1.2979    2.3952 H         1 ATP         0.2010
     38 H2'         0.0002   -0.0084   -0.0014 H         1 ATP        -0.0393
     39 HO2'       -0.6132    0.5577    2.1063 H         1 ATP         0.2010
     40 H1'         1.7718    1.9211    1.6015 H         1 ATP        -0.0393
     41 H8          0.6089    2.4651   -2.2147 H         1 ATP         0.0000
     42 HN61       -2.5055    5.6680   -1.4503 H         1 ATP         0.2048
     43 HN62       -3.3462    6.4841   -0.1542 H         1 ATP         0.2048
     44 H2         -1.5932    4.4937    3.7066 H         1 ATP        -0.1292
     45 H45        -2.8098    5.8270    2.1160 H         1 ATP         0.2048
@<TRIPOS>BOND
     1    1    2 2
     2    1    3 1
     3    1    4 1
     4    1    8 1
     5    5    6 2
     6    5    7 1
     7    5    8 1
     8    5   12 1
     9    9   10 2
    10    9   11 1
    11    9   12 1
    12    9   13 1
    13   11   32 1
    14   13   14 1
    15   14   15 1
    16   14   33 1
    17   14   34 1
    18   15   16 1
    19   15   17 1
    20   15   35 1
    21   16   21 1
    22   17   18 1
    23   17   19 1
    24   17   36 1
    25   18   37 1
    26   19   20 1
    27   19   21 1
    28   19   38 1
    29   20   39 1
    30   21   22 1
    31   21   40 1
    32   22   23 ar
    33   22   31 ar
    34   23   24 ar
    35   23   41 1
    36   24   25 ar
    37   25   26 ar
    38   25   31 ar
    39   26   27 1
    40   26   28 ar
    41   27   42 1
    42   27   43 1
    43   28   29 ar
    44   28   45 1
    45   29   30 ar
    46   29   44 1
    47   30   31 ar
@<TRIPOS>SUBSTRUCTURE
     1 ATP         1 GROUP 0 A     ****
@<TRIPOS>MOLECULE
[[[5-(6-amino-1,8-dihydropurine-6,8-diylium-7-id-9-yl)-3,4-dihydroxy-tetrahydrofuran-2-yl]methoxy-hydroxy-phosphoryl]oxy-oxido-phosphoryl] phosphate
   45    47     1     0     0
SMALL
USER_CHARGES

@<TRIPOS>ATOM
      1 PG          6.8687   -1.2185   -3.4958 P.3       1 ATP        -1.1921
      2 O1G         7.4031   -0.0298   -4.2876 O.co2     1 ATP         0.3195
      3 O2G         6.9290   -1.0451   -1.9821 O.co2     1 ATP         0.3195
      4 O3G         7.3704   -2.5725   -3.9873 O.co2     1 ATP         0.3195
      5 PB          4.4516   -1.4076   -5.2525 P.3       1 ATP        -1.1062
      6 O1B         4.7141   -0.1873   -6.1068 O.co2     1 ATP         0.3195
      7 O2B         4.7020   -2.7999   -5.7886 O.co2     1 ATP         0.3195
      8 O3B         5.2577   -1.2498   -3.8413 O.3       1 ATP         0.4672
      9 PA          2.1490   -2.2861   -3.6338 P.3       1 ATP        -0.9715
     10 O1A         2.4557   -3.7477   -3.7869 O.2       1 ATP         0.2707
     11 O2A         0.5916   -1.9026   -3.8458 O.3       1 ATP         0.0326
     12 O3A         2.9212   -1.3352   -4.6909 O.3       1 ATP         0.4672
     13 O5'         2.5245   -1.6648   -2.1878 O.3       1 ATP         0.1618
     14 C5'         2.2816   -0.2918   -1.9206 C.3       1 ATP         0.1504
     15 C4'         2.7248    0.0226   -0.4980 C.3       1 ATP         0.1111
     16 O4'         2.4697    1.4219   -0.2462 O.3       1 ATP        -0.1436
     17 C3'         1.9404   -0.7419    0.5596 C.3       1 ATP         0.1111
     18 O3'         2.7418   -0.8086    1.7389 O.3       1 ATP        -0.2728
     19 C2'         0.7477    0.1630    0.7858 C.3       1 ATP         0.1111
     20 O2'         0.1373   -0.0577    2.0407 O.3       1 ATP        -0.2728
     21 C1'         1.3733    1.5427    0.6747 C.3       1 ATP         0.2693
     22 N9          0.4520    2.5240    0.1767 N.pl3     1 ATP        -0.3222
     23 C8          0.1798    2.8712   -1.2933 C.ar      1 ATP         0.1640
     24 N7         -0.7494    3.8400   -1.3610 N.2       1 ATP        -0.1640
     25 C5         -1.0173    4.0603   -0.0358 C.ar      1 ATP         0.0820
     26 C6         -2.0105    5.0717    0.4241 C.ar      1 ATP         0.1640
     27 N6         -2.6723    5.7982   -0.4628 N.pl3     1 ATP        -0.4916
     28 N1         -2.1445    5.1522    1.7502 N.pl3     1 ATP        -0.4390
     29 C2         -1.3755    4.3143    2.6427 C.ar      1 ATP         0.5691
     30 N3         -0.5075    3.4292    2.2616 N.ar      1 ATP        -0.4283
     31 C4         -0.3667    3.3425    0.9070 C.ar      1 ATP         0.2226
     32 HOA2       -0.0807   -2.3050   -3.2557 H         1 ATP         0.2010
     33 H5'1        2.8432    0.3119   -2.6398 H         1 ATP        -0.0393
     34 H5'2        1.2128   -0.0927   -2.0428 H         1 ATP        -0.0393
     35 H4'         3.8040   -0.1399   -0.4044 H         1 ATP        -0.0393
     36 H3'         1.6768   -1.7637    0.2732 H         1 ATP        -0.0393
     37 HO3'        2.2231   -1.2979    2.3952 H         1 ATP         0.2010
     38 H2'         0.0002   -0.0084   -0.0014 H         1 ATP        -0.0393
     39 HO2'       -0.6132    0.5577    2.1063 H         1 ATP         0.2010
     40 H1'         1.7718    1.9211    1.6015 H         1 ATP        -0.0393
     41 H8          0.6089    2.4651   -2.2147 H         1 ATP         0.0000
     42 HN61       -2.5055    5.6680   -1.4503 H         1 ATP         0.2048
     43 HN62       -3.3462    6.4841   -0.1542 H         1 ATP         0.2048
     44 H2         -1.5932    4.4937    3.7066 H         1 ATP        -0.1292
     45 H45        -2.8098    5.8270    2.1160 H         1 ATP         0.2048
@<TRIPOS>BOND
     1    1    2 2
     2    1    3 1
     3    1    4 1
     4    1    8 1
     5    5    6 2
     6    5    7 1
     7    5    8 1
     8    5   12 1
     9    9   10 2
    10    9   11 1
    11    9   12 1
    12    9   13 1
    13   11   32 1
    14   13   14 1
    15   14   15 1
    16   14   33 1
    17   14   34 1
    18   15   16 1
    19   15   17 1
    20   15   35 1
    21   16   21 1
    22   17   18 1
    23   17   19 1
    24   17   36 1
    25   18   37 1
    26   19   20 1
    27   19   21 1
    28   19   38 1
    29   20   39 1
    30   21   22 1
    31   21   40 1
    32   22   23 ar
    33   22   31 ar
    34   23   24 ar
    35   23   41 1
    36   24   25 ar
    37   25   26 ar
    38   25   31 ar
    39   26   27 1
    40   26   28 ar
    41   27   42 1
    42   27   43 1
    43   28   29 ar
    44   28   45 1
    45   29   30 ar
    46   29   44 1
    47   30   31 ar
@<TRIPOS>SUBSTRUCTURE
     1 ATP         1 GROUP 0 A     ****
@<TRIPOS>MOLECULE
[[[5-(6-amino-1,8-dihydropurine-6,8-diylium-7-id-9-yl)-3,4-dihydroxy-tetrahydrofuran-2-yl]methoxy-hydroxy-phosphoryl]oxy-oxido-phosphoryl] phosphate
   45    47     1     0     0
SMALL
USER_CHARGES

@<TRIPOS>ATOM
      1 PG          6.3865   -3.3165   -5.7352 P.3       1 ATP        -1.1921
      2 O1G         7.2764   -3.0552   -4.5246 O.co2     1 ATP         0.3195
      3 O2G         6.0688   -4.7881   -5.9772 O.co2     1 ATP         0.3195
      4 O3G         6.8003   -2.5548   -6.9902 O.co2     1 ATP         0.3195
      5 PB          4.5188   -1.1155   -4.9408 P.3       1 ATP        -1.1062
      6 O1B         5.1703   -0.7483   -3.6262 O.co2     1 ATP         0.3195
      7 O2B         4.6991   -0.2475   -6.1667 O.co2     1 ATP         0.3195
      8 O3B         4.9370   -2.6450   -5.3305 O.3       1 ATP         0.4672
      9 PA          2.1490   -2.2861   -3.6338 P.3       1 ATP        -0.9715
     10 O1A         2.4557   -3.7477   -3.7869 O.2       1 ATP         0.2707
     11 O2A         0.5916   -1.9026   -3.8458 O.3       1 ATP         0.0326
     12 O3A         2.9212   -1.3352   -4.6909 O.3       1 ATP         0.4672
     13 O5'         2.5245   -1.6648   -2.1878 O.3       1 ATP         0.1618
     14 C5'         2.2816   -0.2918   -1.9206 C.3       1 ATP         0.1504
     15 C4'         2.7248    0.0226   -0.4980 C.3       1 ATP         0.1111
     16 O4'         2.4697    1.4219   -0.2462 O.3       1 ATP        -0.1436
     17 C3'         1.9404   -0.7419    0.5596 C.3       1 ATP         0.1111
     18 O3'         2.7418   -0.8086    1.7389 O.3       1 ATP        -0.2728
     19 C2'         0.7477    0.1630    0.7858 C.3       1 ATP         0.1111
     20 O2'         0.1373   -0.0577    2.0407 O.3       1 ATP        -0.2728
     21 C1'         1.3733    1.5427    0.6747 C.3       1 ATP         0.2693
     22 N9          0.4520    2.5240    0.1767 N.pl3     1 ATP        -0.3222
     23 C8          0.1798    2.8712   -1.2933 C.ar      1 ATP         0.1640
     24 N7         -0.7494    3.8400   -1.3610 N.2       1 ATP        -0.1640
     25 C5         -1.0173    4.0603   -0.0358 C.ar      1 ATP         0.0820
     26 C6         -2.0105    5.0717    0.4241 C.ar      1 ATP         0.1640
     27 N6         -2.6723    5.7982   -0.4628 N.pl3     1 ATP        -0.4916
     28 N1         -2.1445    5.1522    1.7502 N.pl3     1 ATP        -0.4390
     29 C2         -1.3755    4.3143    2.6427 C.ar      1 ATP         0.5691
     30 N3         -0.5075    3.4292    2.2616 N.ar      1 ATP        -0.4283
     31 C4         -0.3667    3.3425    0.9070 C.ar      1 ATP         0.2226
     32 HOA2       -0.0807   -2.3050   -3.2557 H         1 ATP         0.2010
     33 H5'1        2.8432    0.3119   -2.6398 H         1 ATP        -0.0393
     34 H5'2        1.2128   -0.0927   -2.0428 H         1 ATP        -0.0393
     35 H4'         3.8040   -0.1399   -0.4044 H         1 ATP        -0.0393
     36 H3'         1.6768   -1.7637    0.2732 H         1 ATP        -0.0393
     37 HO3'        2.2231   -1.2979    2.3952 H         1 ATP         0.2010
     38 H2'         0.0002   -0.0084   -0.0014 H         1 ATP        -0.0393
     39 HO2'       -0.6132    0.5577    2.1063 H         1 ATP         0.2010
     40 H1'         1.7718    1.9211    1.6015 H         1 ATP        -0.0393
     41 H8          0.6089    2.4651   -2.2147 H         1 ATP         0.0000
     42 HN61       -2.5055    5.6680   -1.4503 H         1 ATP         0.2048
     43 HN62       -3.3462    6.4841   -0.1542 H         1 ATP         0.2048
     44 H2         -1.5932    4.4937    3.7066 H         1 ATP        -0.1292
     45 H45        -2.8098    5.8270    2.1160 H         1 ATP         0.2048
@<TRIPOS>BOND
     1    1    2 2
     2    1    3 1
     3    1    4 1
     4    1    8 1
     5    5    6 2
     6    5    7 1
     7    5    8 1
     8    5   12 1
     9    9   10 2
    10    9   11 1
    11    9   12 1
    12    9   13 1
    13   11   32 1
    14   13   14 1
    15   14   15 1
    16   14   33 1
    17   14   34 1
    18   15   16 1
    19   15   17 1
    20   15   35 1
    21   16   21 1
    22   17   18 1
    23   17   19 1
    24   17   36 1
    25   18   37 1
    26   19   20 1
    27   19   21 1
    28   19   38 1
    29   20   39 1
    30   21   22 1
    31   21   40 1
    32   22   23 ar
    33   22   31 ar
    34   23   24 ar
    35   23   41 1
    36   24   25 ar
    37   25   26 ar
    38   25   31 ar
    39   26   27 1
    40   26   28 ar
    41   27   42 1
    42   27   43 1
    43   28   29 ar
    44   28   45 1
    45   29   30 ar
    46   29   44 1
    47   30   31 ar
@<TRIPOS>SUBSTRUCTURE
     1 ATP         1 GROUP 0 A     ****
@<TRIPOS>MOLECULE
[[[5-(6-amino-1,8-dihydropurine-6,8-diylium-7-id-9-yl)-3,4-dihydroxy-tetrahydrofuran-2-yl]methoxy-hydroxy-phosphoryl]oxy-oxido-phosphoryl] phosphate
   45    47     1     0     0
SMALL
USER_CHARGES

@<TRIPOS>ATOM
      1 PG          0.7702   -3.6592   -5.1438 P.3       1 ATP        -1.1921
      2 O1G        -0.4692   -3.1726   -4.4004 O.co2     1 ATP         0.3195
      3 O2G         0.5044   -4.7753   -6.1481 O.co2     1 ATP         0.3195
      4 O3G         1.9800   -3.9038   -4.2476 O.co2     1 ATP         0.3195
      5 PB          1.6554   -0.8490   -5.6759 P.3       1 ATP        -1.1062
      6 O1B         2.1261   -0.1344   -6.9231 O.co2     1 ATP         0.3195
      7 O2B         0.5686   -0.2580   -4.8051 O.co2     1 ATP         0.3195
      8 O3B         1.2234   -2.3735   -6.0698 O.3       1 ATP         0.4672
      9 PA          3.9517   -0.1778   -3.9522 P.3       1 ATP        -0.9715
     10 O1A         4.6801    0.7864   -4.8431 O.2       1 ATP         0.2707
     11 O2A         4.9129   -1.1802   -3.1224 O.3       1 ATP         0.0326
     12 O3A         2.9506   -1.1764   -4.7388 O.3       1 ATP         0.4672
     13 O5'         3.0213    0.5153   -2.8245 O.3       1 ATP         0.1618
     14 C5'         2.2816   -0.2918   -1.9206 C.3       1 ATP         0.1504
     15 C4'         2.7248    0.0226   -0.4980 C.3       1 ATP         0.1111
     16 O4'         2.4697    1.4219   -0.2462 O.3       1 ATP        -0.1436
     17 C3'         1.9404   -0.7419    0.5596 C.3       1 ATP         0.1111
     18 O3'         2.7418   -0.8086    1.7389 O.3       1 ATP        -0.2728
     19 C2'         0.7477    0.1630    0.7858 C.3       1 ATP         0.1111
     20 O2'         0.1373   -0.0577    2.0407 O.3       1 ATP        -0.2728
     21 C1'         1.3733    1.5427    0.6747 C.3       1 ATP         0.2693
     22 N9          0.4520    2.5240    0.1767 N.pl3     1 ATP        -0.3222
     23 C8          0.1798    2.8712   -1.2933 C.ar      1 ATP         0.1640
     24 N7         -0.7494    3.8400   -1.3610 N.2       1 ATP        -0.1640
     25 C5         -1.0173    4.0603   -0.0358 C.ar      1 ATP         0.0820
     26 C6         -2.0105    5.0717    0.4241 C.ar      1 ATP         0.1640
     27 N6         -2.6723    5.7982   -0.4628 N.pl3     1 ATP        -0.4916
     28 N1         -2.1445    5.1522    1.7502 N.pl3     1 ATP        -0.4390
     29 C2         -1.3755    4.3143    2.6427 C.ar      1 ATP         0.5691
     30 N3         -0.5075    3.4292    2.2616 N.ar      1 ATP        -0.4283
     31 C4         -0.3667    3.3425    0.9070 C.ar      1 ATP         0.2226
     32 HOA2        5.5708   -0.8011   -2.5015 H         1 ATP         0.2010
     33 H5'1        1.2163   -0.0770   -2.0471 H         1 ATP        -0.0393
     34 H5'2        2.4655   -1.3443   -2.1563 H         1 ATP        -0.0393
     35 H4'         3.8040   -0.1399   -0.4044 H         1 ATP        -0.0393
     36 H3'         1.6768   -1.7637    0.2732 H         1 ATP        -0.0393
     37 HO3'        2.2231   -1.2979    2.3952 H         1 ATP         0.2010
     38 H2'         0.0002   -0.0084   -0.0014 H         1 ATP        -0.0393
     39 HO2'       -0.6132    0.5577    2.1063 H         1 ATP         0.2010
     40 H1'         1.7718    1.9211    1.6015 H         1 ATP        -0.0393
     41 H8          0.6089    2.4651   -2.2147 H         1 ATP         0.0000
     42 HN61       -2.5055    5.6680   -1.4503 H         1 ATP         0.2048
     43 HN62       -3.3462    6.4841   -0.1542 H         1 ATP         0.2048
     44 H2         -1.5932    4.4937    3.7066 H         1 ATP        -0.1292
     45 H45        -2.8098    5.8270    2.1160 H         1 ATP         0.2048
@<TRIPOS>BOND
     1    1    2 2
     2    1    3 1
     3    1    4 1
     4    1    8 1
     5    5    6 2
     6    5    7 1
     7    5    8 1
     8    5   12 1
     9    9   10 2
    10    9   11 1
    11    9   12 1
    12    9   13 1
    13   11   32 1
    14   13   14 1
    15   14   15 1
    16   14   33 1
    17   14   34 1
    18   15   16 1
    19   15   17 1
    20   15   35 1
    21   16   21 1
    22   17   18 1
    23   17   19 1
    24   17   36 1
    25   18   37 1
    26   19   20 1
    27   19   21 1
    28   19   38 1
    29   20   39 1
    30   21   22 1
    31   21   40 1
    32   22   23 ar
    33   22   31 ar
    34   23   24 ar
    35   23   41 1
    36   24   25 ar
    37   25   26 ar
    38   25   31 ar
    39   26   27 1
    40   26   28 ar
    41   27   42 1
    42   27   43 1
    43   28   29 ar
    44   28   45 1
    45   29   30 ar
    46   29   44 1
    47   30   31 ar
@<TRIPOS>SUBSTRUCTURE
     1 ATP         1 GROUP 0 A     ****
@<TRIPOS>MOLECULE
[[[5-(6-amino-1,8-dihydropurine-6,8-diylium-7-id-9-yl)-3,4-dihydroxy-tetrahydrofuran-2-yl]methoxy-hydroxy-phosphoryl]oxy-oxido-phosphoryl] phosphate
   45    47     1     0     0
SMALL
USER_CHARGES

@<TRIPOS>ATOM
      1 PG          2.4671    3.6727   -7.4180 P.3       1 ATP        -1.1921
      2 O1G         3.0451    4.7525   -6.5095 O.co2     1 ATP         0.3195
      3 O2G         3.4324    3.1618   -8.4820 O.co2     1 ATP         0.3195
      4 O3G         1.0688    3.9815   -7.9434 O.co2     1 ATP         0.3195
      5 PB          1.3277    2.1960   -5.0759 P.3       1 ATP        -1.1062
      6 O1B         1.8951    3.0685   -3.9784 O.co2     1 ATP         0.3195
      7 O2B        -0.1301    2.2914   -5.4689 O.co2     1 ATP         0.3195
      8 O3B         2.2337    2.3809   -6.4216 O.3       1 ATP         0.4672
      9 PA          3.0905   -0.0736   -4.4161 P.3       1 ATP        -0.9715
     10 O1A         4.2294    0.4201   -5.2606 O.2       1 ATP         0.2707
     11 O2A         2.7697   -1.6508   -4.5799 O.3       1 ATP         0.0326
     12 O3A         1.6732    0.6374   -4.7382 O.3       1 ATP         0.4672
     13 O5'         3.2903    0.1346   -2.8241 O.3       1 ATP         0.1618
     14 C5'         2.2816   -0.2918   -1.9206 C.3       1 ATP         0.1504
     15 C4'         2.7248    0.0226   -0.4980 C.3       1 ATP         0.1111
     16 O4'         2.4697    1.4219   -0.2462 O.3       1 ATP        -0.1436
     17 C3'         1.9404   -0.7419    0.5596 C.3       1 ATP         0.1111
     18 O3'         2.7418   -0.8086    1.7389 O.3       1 ATP        -0.2728
     19 C2'         0.7477    0.1630    0.7858 C.3       1 ATP         0.1111
     20 O2'         0.1373   -0.0577    2.0407 O.3       1 ATP        -0.2728
     21 C1'         1.3733    1.5427    0.6747 C.3       1 ATP         0.2693
     22 N9          0.4520    2.5240    0.1767 N.pl3     1 ATP        -0.3222
     23 C8         -0.3054    2.4845   -1.1576 C.ar      1 ATP         0.1640
     24 N7         -1.0755    3.5806   -1.2691 N.2       1 ATP        -0.1640
     25 C5         -0.8043    4.2306   -0.0942 C.ar      1 ATP         0.0820
     26 C6         -1.4324    5.5335    0.2646 C.ar      1 ATP         0.1640
     27 N6         -2.2885    6.1054   -0.5675 N.pl3     1 ATP        -0.4916
     28 N1         -1.0537    6.0229    1.4478 N.pl3     1 ATP        -0.4390
     29 C2         -0.1096    5.3242    2.2908 C.ar      1 ATP         0.5691
     30 N3          0.4468    4.1904    1.9960 N.ar      1 ATP        -0.4283
     31 C4          0.0631    3.6855    0.7877 C.ar      1 ATP         0.2226
     32 HOA2        3.4697   -2.3025   -4.3622 H         1 ATP         0.2010
     33 H5'1        1.3514    0.2330   -2.1577 H         1 ATP        -0.0393
     34 H5'2        2.1280   -1.3678   -2.0460 H         1 ATP        -0.0393
     35 H4'         3.8040   -0.1399   -0.4044 H         1 ATP        -0.0393
     36 H3'         1.6768   -1.7637    0.2732 H         1 ATP        -0.0393
     37 HO3'        2.2231   -1.2979    2.3952 H         1 ATP         0.2010
     38 H2'         0.0002   -0.0084   -0.0014 H         1 ATP        -0.0393
     39 HO2'       -0.6132    0.5577    2.1063 H         1 ATP         0.2010
     40 H1'         1.7718    1.9211    1.6015 H         1 ATP        -0.0393
     41 H8         -0.2991    1.7413   -1.9611 H         1 ATP         0.0000
     42 HN61       -2.5167    5.6603   -1.4447 H         1 ATP         0.2048
     43 HN62       -2.7159    6.9882   -0.3270 H         1 ATP         0.2048
     44 H2          0.1059    5.8491    3.2340 H         1 ATP        -0.1292
     45 H45        -1.4532    6.9099    1.7401 H         1 ATP         0.2048
@<TRIPOS>BOND
     1    1    2 2
     2    1    3 1
     3    1    4 1
     4    1    8 1
     5    5    6 2
     6    5    7 1
     7    5    8 1
     8    5   12 1
     9    9   10 2
    10    9   11 1
    11    9   12 1
    12    9   13 1
    13   11   32 1
    14   13   14 1
    15   14   15 1
    16   14   33 1
    17   14   34 1
    18   15   16 1
    19   15   17 1
    20   15   35 1
    21   16   21 1
    22   17   18 1
    23   17   19 1
    24   17   36 1
    25   18   37 1
    26   19   20 1
    27   19   21 1
    28   19   38 1
    29   20   39 1
    30   21   22 1
    31   21   40 1
    32   22   23 ar
    33   22   31 ar
    34   23   24 ar
    35   23   41 1
    36   24   25 ar
    37   25   26 ar
    38   25   31 ar
    39   26   27 1
    40   26   28 ar
    41   27   42 1
    42   27   43 1
    43   28   29 ar
    44   28   45 1
    45   29   30 ar
    46   29   44 1
    47   30   31 ar
@<TRIPOS>SUBSTRUCTURE
     1 ATP         1 GROUP 0 A     ****
@<TRIPOS>MOLECULE
[[[5-(6-amino-1,8-dihydropurine-6,8-diylium-7-id-9-yl)-3,4-dihydroxy-tetrahydrofuran-2-yl]methoxy-hydroxy-phosphoryl]oxy-oxido-phosphoryl] phosphate
   45    47     1     0     0
SMALL
USER_CHARGES

@<TRIPOS>ATOM
      1 PG          4.4488    0.6010   -7.9989 P.3       1 ATP        -1.1921
      2 O1G         3.1826    1.1121   -8.6780 O.co2     1 ATP         0.3195
      3 O2G         5.4041    1.6975   -7.5408 O.co2     1 ATP         0.3195
      4 O3G         5.1292   -0.5506   -8.7321 O.co2     1 ATP         0.3195
      5 PB          2.8746   -1.3159   -6.3220 P.3       1 ATP        -1.1062
      6 O1B         1.4901   -0.8969   -6.7638 O.co2     1 ATP         0.3195
      7 O2B         3.5011   -2.5932   -6.8363 O.co2     1 ATP         0.3195
      8 O3B         3.9140   -0.0878   -6.6005 O.3       1 ATP         0.4672
      9 PA          2.1490   -2.2861   -3.6338 P.3       1 ATP        -0.9715
     10 O1A         2.4557   -3.7477   -3.7869 O.2       1 ATP         0.2707
     11 O2A         0.5916   -1.9026   -3.8458 O.3       1 ATP         0.0326
     12 O3A         2.9212   -1.3352   -4.6909 O.3       1 ATP         0.4672
     13 O5'         2.5245   -1.6648   -2.1878 O.3       1 ATP         0.1618
     14 C5'         2.2816   -0.2918   -1.9206 C.3       1 ATP         0.1504
     15 C4'         2.7248    0.0226   -0.4980 C.3       1 ATP         0.1111
     16 O4'         2.4697    1.4219   -0.2462 O.3       1 ATP        -0.1436
     17 C3'         1.9404   -0.7419    0.5596 C.3       1 ATP         0.1111
     18 O3'         2.7418   -0.8086    1.7389 O.3       1 ATP        -0.2728
     19 C2'         0.7477    0.1630    0.7858 C.3       1 ATP         0.1111
     20 O2'         0.1373   -0.0577    2.0407 O.3       1 ATP        -0.2728
     21 C1'         1.3733    1.5427    0.6747 C.3       1 ATP         0.2693
     22 N9          0.4520    2.5240    0.1767 N.pl3     1 ATP        -0.3222
     23 C8          0.1798    2.8712   -1.2933 C.ar      1 ATP         0.1640
     24 N7         -0.7494    3.8400   -1.3610 N.2       1 ATP        -0.1640
     25 C5         -1.0173    4.0603   -0.0358 C.ar      1 ATP         0.0820
     26 C6         -2.0105    5.0717    0.4241 C.ar      1 ATP         0.1640
     27 N6         -2.6723    5.7982   -0.4628 N.pl3     1 ATP        -0.4916
     28 N1         -2.1445    5.1522    1.7502 N.pl3     1 ATP        -0.4390
     29 C2         -1.3755    4.3143    2.6427 C.ar      1 ATP         0.5691
     30 N3         -0.5075    3.4292    2.2616 N.ar      1 ATP        -0.4283
     31 C4         -0.3667    3.3425    0.9070 C.ar      1 ATP         0.2226
     32 HOA2       -0.0807   -2.3050   -3.2557 H         1 ATP         0.2010
     33 H5'1        2.8432    0.3119   -2.6398 H         1 ATP        -0.0393
     34 H5'2        1.2128   -0.0927   -2.0428 H         1 ATP        -0.0393
     35 H4'         3.8040   -0.1399   -0.4044 H         1 ATP        -0.0393
     36 H3'         1.6768   -1.7637    0.2732 H         1 ATP        -0.0393
     37 HO3'        2.2231   -1.2979    2.3952 H         1 ATP         0.2010
     38 H2'         0.0002   -0.0084   -0.0014 H         1 ATP        -0.0393
     39 HO2'       -0.6132    0.5577    2.1063 H         1 ATP         0.2010
     40 H1'         1.7718    1.9211    1.6015 H         1 ATP        -0.0393
     41 H8          0.6089    2.4651   -2.2147 H         1 ATP         0.0000
     42 HN61       -2.5055    5.6680   -1.4503 H         1 ATP         0.2048
     43 HN62       -3.3462    6.4841   -0.1542 H         1 ATP         0.2048
     44 H2         -1.5932    4.4937    3.7066 H         1 ATP        -0.1292
     45 H45        -2.8098    5.8270    2.1160 H         1 ATP         0.2048
@<TRIPOS>BOND
     1    1    2 2
     2    1    3 1
     3    1    4 1
     4    1    8 1
     5    5    6 2
     6    5    7 1
     7    5    8 1
     8    5   12 1
     9    9   10 2
    10    9   11 1
    11    9   12 1
    12    9   13 1
    13   11   32 1
    14   13   14 1
    15   14   15 1
    16   14   33 1
    17   14   34 1
    18   15   16 1
    19   15   17 1
    20   15   35 1
    21   16   21 1
    22   17   18 1
    23   17   19 1
    24   17   36 1
    25   18   37 1
    26   19   20 1
    27   19   21 1
    28   19   38 1
    29   20   39 1
    30   21   22 1
    31   21   40 1
    32   22   23 ar
    33   22   31 ar
    34   23   24 ar
    35   23   41 1
    36   24   25 ar
    37   25   26 ar
    38   25   31 ar
    39   26   27 1
    40   26   28 ar
    41   27   42 1
    42   27   43 1
    43   28   29 ar
    44   28   45 1
    45   29   30 ar
    46   29   44 1
    47   30   31 ar
@<TRIPOS>SUBSTRUCTURE
     1 ATP         1 GROUP 0 A     ****
@<TRIPOS>MOLECULE
[[[5-(6-amino-1,8-dihydropurine-6,8-diylium-7-id-9-yl)-3,4-dihydroxy-tetrahydrofuran-2-yl]methoxy-hydroxy-phosphoryl]oxy-oxido-phosphoryl] phosphate
   45    47     1     0     0
SMALL
USER_CHARGES

@<TRIPOS>ATOM
      1 PG          5.1859    4.8261   -4.9743 P.3       1 ATP        -1.1921
      2 O1G         6.0370    4.7870   -3.7095 O.co2     1 ATP         0.3195
      3 O2G         5.9173    4.3903   -6.2392 O.co2     1 ATP         0.3195
      4 O3G         4.3680    6.1032   -5.1373 O.co2     1 ATP         0.3195
      5 PB          2.9075    3.4717   -3.5819 P.3       1 ATP        -1.1062
      6 O1B         3.5902    3.2163   -2.2566 O.co2     1 ATP         0.3195
      7 O2B         1.8921    4.5832   -3.7314 O.co2     1 ATP         0.3195
      8 O3B         4.0461    3.6597   -4.7370 O.3       1 ATP         0.4672
      9 PA          2.8890    0.6159   -4.3157 P.3       1 ATP        -0.9715
     10 O1A         4.0157    0.5890   -5.3075 O.2       1 ATP         0.2707
     11 O2A         1.6246   -0.3119   -4.7129 O.3       1 ATP         0.0326
     12 O3A         2.2331    2.0795   -4.1013 O.3       1 ATP         0.4672
     13 O5'         3.2903    0.1346   -2.8241 O.3       1 ATP         0.1618
     14 C5'         2.2816   -0.2918   -1.9206 C.3       1 ATP         0.1504
     15 C4'         2.7248    0.0226   -0.4980 C.3       1 ATP         0.1111
     16 O4'         2.4697    1.4219   -0.2462 O.3       1 ATP        -0.1436
     17 C3'         1.9404   -0.7419    0.5596 C.3       1 ATP         0.1111
     18 O3'         2.7418   -0.8086    1.7389 O.3       1 ATP        -0.2728
     19 C2'         0.7477    0.1630    0.7858 C.3       1 ATP         0.1111
     20 O2'         0.1373   -0.0577    2.0407 O.3       1 ATP        -0.2728
     21 C1'         1.3733    1.5427    0.6747 C.3       1 ATP         0.2693
     22 N9          0.4520    2.5240    0.1767 N.pl3     1 ATP        -0.3222
     23 C8         -0.3054    2.4845   -1.1576 C.ar      1 ATP         0.1640
     24 N7         -1.0755    3.5806   -1.2691 N.2       1 ATP        -0.1640
     25 C5         -0.8043    4.2306   -0.0942 C.ar      1 ATP         0.0820
     26 C6         -1.4324    5.5335    0.2646 C.ar      1 ATP         0.1640
     27 N6         -2.2885    6.1054   -0.5675 N.pl3     1 ATP        -0.4916
     28 N1         -1.0537    6.0229    1.4478 N.pl3     1 ATP        -0.4390
     29 C2         -0.1096    5.3242    2.2908 C.ar      1 ATP         0.5691
     30 N3          0.4468    4.1904    1.9960 N.ar      1 ATP        -0.4283
     31 C4          0.0631    3.6855    0.7877 C.ar      1 ATP         0.2226
     32 HOA2        1.7609   -1.2767   -4.8258 H         1 ATP         0.2010
     33 H5'1        1.3514    0.2330   -2.1577 H         1 ATP        -0.0393
     34 H5'2        2.1280   -1.3678   -2.0460 H         1 ATP        -0.0393
     35 H4'         3.8040   -0.1399   -0.4044 H         1 ATP        -0.0393
     36 H3'         1.6768   -1.7637    0.2732 H         1 ATP        -0.0393
     37 HO3'        2.2231   -1.2979    2.3952 H         1 ATP         0.2010
     38 H2'         0.0002   -0.0084   -0.0014 H         1 ATP        -0.0393
     39 HO2'       -0.6132    0.5577    2.1063 H         1 ATP         0.2010
     40 H1'         1.7718    1.9211    1.6015 H         1 ATP        -0.0393
     41 H8         -0.2991    1.7413   -1.9611 H         1 ATP         0.0000
     42 HN61       -2.5167    5.6603   -1.4447 H         1 ATP         0.2048
     43 HN62       -2.7159    6.9882   -0.3270 H         1 ATP         0.2048
     44 H2          0.1059    5.8491    3.2340 H         1 ATP        -0.1292
     45 H45        -1.4532    6.9099    1.7401 H         1 ATP         0.2048
@<TRIPOS>BOND
     1    1    2 2
     2    1    3 1
     3    1    4 1
     4    1    8 1
     5    5    6 2
     6    5    7 1
     7    5    8 1
     8    5   12 1
     9    9   10 2
    10    9   11 1
    11    9   12 1
    12    9   13 1
    13   11   32 1
    14   13   14 1
    15   14   15 1
    16   14   33 1
    17   14   34 1
    18   15   16 1
    19   15   17 1
    20   15   35 1
    21   16   21 1
    22   17   18 1
    23   17   19 1
    24   17   36 1
    25   18   37 1
    26   19   20 1
    27   19   21 1
    28   19   38 1
    29   20   39 1
    30   21   22 1
    31   21   40 1
    32   22   23 ar
    33   22   31 ar
    34   23   24 ar
    35   23   41 1
    36   24   25 ar
    37   25   26 ar
    38   25   31 ar
    39   26   27 1
    40   26   28 ar
    41   27   42 1
    42   27   43 1
    43   28   29 ar
    44   28   45 1
    45   29   30 ar
    46   29   44 1
    47   30   31 ar
@<TRIPOS>SUBSTRUCTURE
     1 ATP         1 GROUP 0 A     ****
@<TRIPOS>MOLECULE
[[[5-(6-amino-1,8-dihydropurine-6,8-diylium-7-id-9-yl)-3,4-dihydroxy-tetrahydrofuran-2-yl]methoxy-hydroxy-phosphoryl]oxy-oxido-phosphoryl] phosphate
   45    47     1     0     0
SMALL
USER_CHARGES

@<TRIPOS>ATOM
      1 PG         -1.3213   -1.7107   -7.1594 P.3       1 ATP        -1.1921
      2 O1G        -1.0148   -3.1961   -7.3191 O.co2     1 ATP         0.3195
      3 O2G        -2.6114   -1.4116   -6.4037 O.co2     1 ATP         0.3195
      4 O3G        -1.1454   -0.8961   -8.4369 O.co2     1 ATP         0.3195
      5 PB          1.4973   -1.1340   -6.3306 P.3       1 ATP        -1.1062
      6 O1B         2.0072   -2.5578   -6.3068 O.co2     1 ATP         0.3195
      7 O2B         1.8530   -0.2001   -7.4664 O.co2     1 ATP         0.3195
      8 O3B        -0.1276   -1.1503   -6.1711 O.3       1 ATP         0.4672
      9 PA          3.3423   -0.0257   -4.3151 P.3       1 ATP        -0.9715
     10 O1A         4.1311    0.9234   -5.1701 O.2       1 ATP         0.2707
     11 O2A         4.0498   -1.4615   -4.0799 O.3       1 ATP         0.0326
     12 O3A         1.8928   -0.4118   -4.9217 O.3       1 ATP         0.4672
     13 O5'         3.0213    0.5153   -2.8245 O.3       1 ATP         0.1618
     14 C5'         2.2816   -0.2918   -1.9206 C.3       1 ATP         0.1504
     15 C4'         2.7248    0.0226   -0.4980 C.3       1 ATP         0.1111
     16 O4'         2.4697    1.4219   -0.2462 O.3       1 ATP        -0.1436
     17 C3'         1.9404   -0.7419    0.5596 C.3       1 ATP         0.1111
     18 O3'         2.7418   -0.8086    1.7389 O.3       1 ATP        -0.2728
     19 C2'         0.7477    0.1630    0.7858 C.3       1 ATP         0.1111
     20 O2'         0.1373   -0.0577    2.0407 O.3       1 ATP        -0.2728
     21 C1'         1.3733    1.5427    0.6747 C.3       1 ATP         0.2693
     22 N9          0.4520    2.5240    0.1767 N.pl3     1 ATP        -0.3222
     23 C8          0.1798    2.8712   -1.2933 C.ar      1 ATP         0.1640
     24 N7         -0.7494    3.8400   -1.3610 N.2       1 ATP        -0.1640
     25 C5         -1.0173    4.0603   -0.0358 C.ar      1 ATP         0.0820
     26 C6         -2.0105    5.0717    0.4241 C.ar      1 ATP         0.1640
     27 N6         -2.6723    5.7982   -0.4628 N.pl3     1 ATP        -0.4916
     28 N1         -2.1445    5.1522    1.7502 N.pl3     1 ATP        -0.4390
     29 C2         -1.3755    4.3143    2.6427 C.ar      1 ATP         0.5691
     30 N3         -0.5075    3.4292    2.2616 N.ar      1 ATP        -0.4283
     31 C4         -0.3667    3.3425    0.9070 C.ar      1 ATP         0.2226
     32 HOA2        4.9282   -1.4920   -3.6444 H         1 ATP         0.2010
     33 H5'1        1.2163   -0.0770   -2.0471 H         1 ATP        -0.0393
     34 H5'2        2.4655   -1.3443   -2.1563 H         1 ATP        -0.0393
     35 H4'         3.8040   -0.1399   -0.4044 H         1 ATP        -0.0393
     36 H3'         1.6768   -1.7637    0.2732 H         1 ATP        -0.0393
     37 HO3'        2.2231   -1.2979    2.3952 H         1 ATP         0.2010
     38 H2'         0.0002   -0.0084   -0.0014 H         1 ATP        -0.0393
     39 HO2'       -0.6132    0.5577    2.1063 H         1 ATP         0.2010
     40 H1'         1.7718    1.9211    1.6015 H         1 ATP        -0.0393
     41 H8          0.6089    2.4651   -2.2147 H         1 ATP         0.0000
     42 HN61       -2.5055    5.6680   -1.4503 H         1 ATP         0.2048
     43 HN62       -3.3462    6.4841   -0.1542 H         1 ATP         0.2048
     44 H2         -1.5932    4.4937    3.7066 H         1 ATP        -0.1292
     45 H45        -2.8098    5.8270    2.1160 H         1 ATP         0.2048
@<TRIPOS>BOND
     1    1    2 2
     2    1    3 1
     3    1    4 1
     4    1    8 1
     5    5    6 2
     6    5    7 1
     7    5    8 1
     8    5   12 1
     9    9   10 2
    10    9   11 1
    11    9   12 1
    12    9   13 1
    13   11   32 1
    14   13   14 1
    15   14   15 1
    16   14   33 1
    17   14   34 1
    18   15   16 1
    19   15   17 1
    20   15   35 1
    21   16   21 1
    22   17   18 1
    23   17   19 1
    24   17   36 1
    25   18   37 1
    26   19   20 1
    27   19   21 1
    28   19   38 1
    29   20   39 1
    30   21   22 1
    31   21   40 1
    32   22   23 ar
    33   22   31 ar
    34   23   24 ar
    35   23   41 1
    36   24   25 ar
    37   25   26 ar
    38   25   31 ar
    39   26   27 1
    40   26   28 ar
    41   27   42 1
    42   27   43 1
    43   28   29 ar
    44   28   45 1
    45   29   30 ar
    46   29   44 1
    47   30   31 ar
@<TRIPOS>SUBSTRUCTURE
     1 ATP         1 GROUP 0 A     ****
@<TRIPOS>MOLECULE
[[[5-(6-amino-1,8-dihydropurine-6,8-diylium-7-id-9-yl)-3,4-dihydroxy-tetrahydrofuran-2-yl]methoxy-hydroxy-phosphoryl]oxy-oxido-phosphoryl] phosphate
   45    47     1     0     0
SMALL
USER_CHARGES

@<TRIPOS>ATOM
      1 PG          3.6587   -3.6489   -8.0267 P.3       1 ATP        -1.1921
      2 O1G         4.6964   -2.8124   -8.7677 O.co2     1 ATP         0.3195
      3 O2G         4.1551   -5.0212   -7.5848 O.co2     1 ATP         0.3195
      4 O3G         2.2842   -3.6678   -8.6878 O.co2     1 ATP         0.3195
      5 PB          2.8746   -1.3159   -6.3220 P.3       1 ATP        -1.1062
      6 O1B         3.9042   -0.3292   -6.8260 O.co2     1 ATP         0.3195
      7 O2B         1.4298   -1.2236   -6.7610 O.co2     1 ATP         0.3195
      8 O3B         3.4039   -2.8318   -6.6185 O.3       1 ATP         0.4672
      9 PA          2.1490   -2.2861   -3.6338 P.3       1 ATP        -0.9715
     10 O1A         2.4557   -3.7477   -3.7869 O.2       1 ATP         0.2707
     11 O2A         0.5916   -1.9026   -3.8458 O.3       1 ATP         0.0326
     12 O3A         2.9212   -1.3352   -4.6909 O.3       1 ATP         0.4672
     13 O5'         2.5245   -1.6648   -2.1878 O.3       1 ATP         0.1618
     14 C5'         2.2816   -0.2918   -1.9206 C.3       1 ATP         0.1504
     15 C4'         2.7248    0.0226   -0.4980 C.3       1 ATP         0.1111
     16 O4'         2.4697    1.4219   -0.2462 O.3       1 ATP        -0.1436
     17 C3'         1.9404   -0.7419    0.5596 C.3       1 ATP         0.1111
     18 O3'         2.7418   -0.8086    1.7389 O.3       1 ATP        -0.2728
     19 C2'         0.7477    0.1630    0.7858 C.3       1 ATP         0.1111
     20 O2'         0.1373   -0.0577    2.0407 O.3       1 ATP        -0.2728
     21 C1'         1.3733    1.5427    0.6747 C.3       1 ATP         0.2693
     22 N9          0.4520    2.5240    0.1767 N.pl3     1 ATP        -0.3222
     23 C8          0.1798    2.8712   -1.2933 C.ar      1 ATP         0.1640
     24 N7         -0.7494    3.8400   -1.3610 N.2       1 ATP        -0.1640
     25 C5         -1.0173    4.0603   -0.0358 C.ar      1 ATP         0.0820
     26 C6         -2.0105    5.0717    0.4241 C.ar      1 ATP         0.1640
     27 N6         -2.6723    5.7982   -0.4628 N.pl3     1 ATP        -0.4916
     28 N1         -2.1445    5.1522    1.7502 N.pl3     1 ATP        -0.4390
     29 C2         -1.3755    4.3143    2.6427 C.ar      1 ATP         0.5691
     30 N3         -0.5075    3.4292    2.2616 N.ar      1 ATP        -0.4283
     31 C4         -0.3667    3.3425    0.9070 C.ar      1 ATP         0.2226
     32 HOA2       -0.0807   -2.3050   -3.2557 H         1 ATP         0.2010
     33 H5'1        2.8432    0.3119   -2.6398 H         1 ATP        -0.0393
     34 H5'2        1.2128   -0.0927   -2.0428 H         1 ATP        -0.0393
     35 H4'         3.8040   -0.1399   -0.4044 H         1 ATP        -0.0393
     36 H3'         1.6768   -1.7637    0.2732 H         1 ATP        -0.0393
     37 HO3'        2.2231   -1.2979    2.3952 H         1 ATP         0.2010
     38 H2'         0.0002   -0.0084   -0.0014 H         1 ATP        -0.0393
     39 HO2'       -0.6132    0.5577    2.1063 H         1 ATP         0.2010
     40 H1'         1.7718    1.9211    1.6015 H         1 ATP        -0.0393
     41 H8          0.6089    2.4651   -2.2147 H         1 ATP         0.0000
     42 HN61       -2.5055    5.6680   -1.4503 H         1 ATP         0.2048
     43 HN62       -3.3462    6.4841   -0.1542 H         1 ATP         0.2048
     44 H2         -1.5932    4.4937    3.7066 H         1 ATP        -0.1292
     45 H45        -2.8098    5.8270    2.1160 H         1 ATP         0.2048
@<TRIPOS>BOND
     1    1    2 2
     2    1    3 1
     3    1    4 1
     4    1    8 1
     5    5    6 2
     6    5    7 1
     7    5    8 1
     8    5   12 1
     9    9   10 2
    10    9   11 1
    11    9   12 1
    12    9   13 1
    13   11   32 1
    14   13   14 1
    15   14   15 1
    16   14   33 1
    17   14   34 1
    18   15   16 1
    19   15   17 1
    20   15   35 1
    21   16   21 1
    22   17   18 1
    23   17   19 1
    24   17   36 1
    25   18   37 1
    26   19   20 1
    27   19   21 1
    28   19   38 1
    29   20   39 1
    30   21   22 1
    31   21   40 1
    32   22   23 ar
    33   22   31 ar
    34   23   24 ar
    35   23   41 1
    36   24   25 ar
    37   25   26 ar
    38   25   31 ar
    39   26   27 1
    40   26   28 ar
    41   27   42 1
    42   27   43 1
    43   28   29 ar
    44   28   45 1
    45   29   30 ar
    46   29   44 1
    47   30   31 ar
@<TRIPOS>SUBSTRUCTURE
     1 ATP         1 GROUP 0 A     ****
@<TRIPOS>MOLECULE
[[[5-(6-amino-1,8-dihydropurine-6,8-diylium-7-id-9-yl)-3,4-dihydroxy-tetrahydrofuran-2-yl]methoxy-hydroxy-phosphoryl]oxy-oxido-phosphoryl] phosphate
   45    47     1     0     0
SMALL
USER_CHARGES

@<TRIPOS>ATOM
      1 PG          5.2100    3.5822   -1.6713 P.3       1 ATP        -1.1921
      2 O1G         4.4164    4.4491   -0.6995 O.co2     1 ATP         0.3195
      3 O2G         5.9554    2.4238   -1.0174 O.co2     1 ATP         0.3195
      4 O3G         6.0447    4.3722   -2.6741 O.co2     1 ATP         0.3195
      5 PB          2.9075    3.4717   -3.5819 P.3       1 ATP        -1.1062
      6 O1B         1.8964    4.2167   -2.7391 O.co2     1 ATP         0.3195
      7 O2B         3.5876    4.1435   -4.7543 O.co2     1 ATP         0.3195
      8 O3B         4.0616    2.8566   -2.6043 O.3       1 ATP         0.4672
      9 PA          2.8890    0.6159   -4.3157 P.3       1 ATP        -0.9715
     10 O1A         4.0157    0.5890   -5.3075 O.2       1 ATP         0.2707
     11 O2A         1.6246   -0.3119   -4.7129 O.3       1 ATP         0.0326
     12 O3A         2.2331    2.0795   -4.1013 O.3       1 ATP         0.4672
     13 O5'         3.2903    0.1346   -2.8241 O.3       1 ATP         0.1618
     14 C5'         2.2816   -0.2918   -1.9206 C.3       1 ATP         0.1504
     15 C4'         2.7248    0.0226   -0.4980 C.3       1 ATP         0.1111
     16 O4'         2.4697    1.4219   -0.2462 O.3       1 ATP        -0.1436
     17 C3'         1.9404   -0.7419    0.5596 C.3       1 ATP         0.1111
     18 O3'         2.7418   -0.8086    1.7389 O.3       1 ATP        -0.2728
     19 C2'         0.7477    0.1630    0.7858 C.3       1 ATP         0.1111
     20 O2'         0.1373   -0.0577    2.0407 O.3       1 ATP        -0.2728
     21 C1'         1.3733    1.5427    0.6747 C.3       1 ATP         0.2693
     22 N9          0.4520    2.5240    0.1767 N.pl3     1 ATP        -0.3222
     23 C8         -0.3054    2.4845   -1.1576 C.ar      1 ATP         0.1640
     24 N7         -1.0755    3.5806   -1.2691 N.2       1 ATP        -0.1640
     25 C5         -0.8043    4.2306   -0.0942 C.ar      1 ATP         0.0820
     26 C6         -1.4324    5.5335    0.2646 C.ar      1 ATP         0.1640
     27 N6         -2.2885    6.1054   -0.5675 N.pl3     1 ATP        -0.4916
     28 N1         -1.0537    6.0229    1.4478 N.pl3     1 ATP        -0.4390
     29 C2         -0.1096    5.3242    2.2908 C.ar      1 ATP         0.5691
     30 N3          0.4468    4.1904    1.9960 N.ar      1 ATP        -0.4283
     31 C4          0.0631    3.6855    0.7877 C.ar      1 ATP         0.2226
     32 HOA2        1.7609   -1.2767   -4.8258 H         1 ATP         0.2010
     33 H5'1        1.3514    0.2330   -2.1577 H         1 ATP        -0.0393
     34 H5'2        2.1280   -1.3678   -2.0460 H         1 ATP        -0.0393
     35 H4'         3.8040   -0.1399   -0.4044 H         1 ATP        -0.0393
     36 H3'         1.6768   -1.7637    0.2732 H         1 ATP        -0.0393
     37 HO3'        2.2231   -1.2979    2.3952 H         1 ATP         0.2010
     38 H2'         0.0002   -0.0084   -0.0014 H         1 ATP        -0.0393
     39 HO2'       -0.6132    0.5577    2.1063 H         1 ATP         0.2010
     40 H1'         1.7718    1.9211    1.6015 H         1 ATP        -0.0393
     41 H8         -0.2991    1.7413   -1.9611 H         1 ATP         0.0000
     42 HN61       -2.7155    6.9885   -0.3273 H         1 ATP         0.2048
     43 HN62       -2.5163    5.6604   -1.4450 H         1 ATP         0.2048
     44 H2          0.1059    5.8491    3.2340 H         1 ATP        -0.1292
     45 H45        -1.4532    6.9099    1.7401 H         1 ATP         0.2048
@<TRIPOS>BOND
     1    1    2 2
     2    1    3 1
     3    1    4 1
     4    1    8 1
     5    5    6 2
     6    5    7 1
     7    5    8 1
     8    5   12 1
     9    9   10 2
    10    9   11 1
    11    9   12 1
    12    9   13 1
    13   11   32 1
    14   13   14 1
    15   14   15 1
    16   14   33 1
    17   14   34 1
    18   15   16 1
    19   15   17 1
    20   15   35 1
    21   16   21 1
    22   17   18 1
    23   17   19 1
    24   17   36 1
    25   18   37 1
    26   19   20 1
    27   19   21 1
    28   19   38 1
    29   20   39 1
    30   21   22 1
    31   21   40 1
    32   22   23 ar
    33   22   31 ar
    34   23   24 ar
    35   23   41 1
    36   24   25 ar
    37   25   26 ar
    38   25   31 ar
    39   26   27 1
    40   26   28 ar
    41   27   42 1
    42   27   43 1
    43   28   29 ar
    44   28   45 1
    45   29   30 ar
    46   29   44 1
    47   30   31 ar
@<TRIPOS>SUBSTRUCTURE
     1 ATP         1 GROUP 0 A     ****
@<TRIPOS>MOLECULE
[[[5-(6-amino-1,8-dihydropurine-6,8-diylium-7-id-9-yl)-3,4-dihydroxy-tetrahydrofuran-2-yl]methoxy-hydroxy-phosphoryl]oxy-oxido-phosphoryl] phosphate
   45    47     1     0     0
SMALL
USER_CHARGES

@<TRIPOS>ATOM
      1 PG          0.3747   -0.8408   -7.8997 P.3       1 ATP        -1.1921
      2 O1G         0.5415   -2.1628   -8.6414 O.co2     1 ATP         0.3195
      3 O2G        -1.0366   -0.5818   -7.3840 O.co2     1 ATP         0.3195
      4 O3G         1.0089    0.3545   -8.6037 O.co2     1 ATP         0.3195
      5 PB          2.8746   -1.3159   -6.3220 P.3       1 ATP        -1.1062
      6 O1B         3.1879   -2.7043   -6.8337 O.co2     1 ATP         0.3195
      7 O2B         3.6518   -0.1136   -6.8113 O.co2     1 ATP         0.3195
      8 O3B         1.2834   -1.0187   -6.5364 O.3       1 ATP         0.4672
      9 PA          2.1490   -2.2861   -3.6338 P.3       1 ATP        -0.9715
     10 O1A         2.4557   -3.7477   -3.7869 O.2       1 ATP         0.2707
     11 O2A         0.5916   -1.9026   -3.8458 O.3       1 ATP         0.0326
     12 O3A         2.9212   -1.3352   -4.6909 O.3       1 ATP         0.4672
     13 O5'         2.5245   -1.6648   -2.1878 O.3       1 ATP         0.1618
     14 C5'         2.2816   -0.2918   -1.9206 C.3       1 ATP         0.1504
     15 C4'         2.7248    0.0226   -0.4980 C.3       1 ATP         0.1111
     16 O4'         2.4697    1.4219   -0.2462 O.3       1 ATP        -0.1436
     17 C3'         1.9404   -0.7419    0.5596 C.3       1 ATP         0.1111
     18 O3'         2.7418   -0.8086    1.7389 O.3       1 ATP        -0.2728
     19 C2'         0.7477    0.1630    0.7858 C.3       1 ATP         0.1111
     20 O2'         0.1373   -0.0577    2.0407 O.3       1 ATP        -0.2728
     21 C1'         1.3733    1.5427    0.6747 C.3       1 ATP         0.2693
     22 N9          0.4520    2.5240    0.1767 N.pl3     1 ATP        -0.3222
     23 C8          0.1798    2.8712   -1.2933 C.ar      1 ATP         0.1640
     24 N7         -0.7494    3.8400   -1.3610 N.2       1 ATP        -0.1640
     25 C5         -1.0173    4.0603   -0.0358 C.ar      1 ATP         0.0820
     26 C6         -2.0105    5.0717    0.4241 C.ar      1 ATP         0.1640
     27 N6         -2.6723    5.7982   -0.4628 N.pl3     1 ATP        -0.4916
     28 N1         -2.1445    5.1522    1.7502 N.pl3     1 ATP        -0.4390
     29 C2         -1.3755    4.3143    2.6427 C.ar      1 ATP         0.5691
     30 N3         -0.5075    3.4292    2.2616 N.ar      1 ATP        -0.4283
     31 C4         -0.3667    3.3425    0.9070 C.ar      1 ATP         0.2226
     32 HOA2        0.1672   -2.1009   -4.7075 H         1 ATP         0.2010
     33 H5'1        2.8432    0.3119   -2.6398 H         1 ATP        -0.0393
     34 H5'2        1.2128   -0.0927   -2.0428 H         1 ATP        -0.0393
     35 H4'         3.8040   -0.1399   -0.4044 H         1 ATP        -0.0393
     36 H3'         1.6768   -1.7637    0.2732 H         1 ATP        -0.0393
     37 HO3'        2.2231   -1.2979    2.3952 H         1 ATP         0.2010
     38 H2'         0.0002   -0.0084   -0.0014 H         1 ATP        -0.0393
     39 HO2'       -0.6132    0.5577    2.1063 H         1 ATP         0.2010
     40 H1'         1.7718    1.9211    1.6015 H         1 ATP        -0.0393
     41 H8          0.6089    2.4651   -2.2147 H         1 ATP         0.0000
     42 HN61       -2.5055    5.6680   -1.4503 H         1 ATP         0.2048
     43 HN62       -3.3462    6.4841   -0.1542 H         1 ATP         0.2048
     44 H2         -1.5932    4.4937    3.7066 H         1 ATP        -0.1292
     45 H45        -2.8098    5.8270    2.1160 H         1 ATP         0.2048
@<TRIPOS>BOND
     1    1    2 2
     2    1    3 1
     3    1    4 1
     4    1    8 1
     5    5    6 2
     6    5    7 1
     7    5    8 1
     8    5   12 1
     9    9   10 2
    10    9   11 1
    11    9   12 1
    12    9   13 1
    13   11   32 1
    14   13   14 1
    15   14   15 1
    16   14   33 1
    17   14   34 1
    18   15   16 1
    19   15   17 1
    20   15   35 1
    21   16   21 1
    22   17   18 1
    23   17   19 1
    24   17   36 1
    25   18   37 1
    26   19   20 1
    27   19   21 1
    28   19   38 1
    29   20   39 1
    30   21   22 1
    31   21   40 1
    32   22   23 ar
    33   22   31 ar
    34   23   24 ar
    35   23   41 1
    36   24   25 ar
    37   25   26 ar
    38   25   31 ar
    39   26   27 1
    40   26   28 ar
    41   27   42 1
    42   27   43 1
    43   28   29 ar
    44   28   45 1
    45   29   30 ar
    46   29   44 1
    47   30   31 ar
@<TRIPOS>SUBSTRUCTURE
     1 ATP         1 GROUP 0 A     ****
@<TRIPOS>MOLECULE
[[[5-(6-amino-1,8-dihydropurine-6,8-diylium-7-id-9-yl)-3,4-dihydroxy-tetrahydrofuran-2-yl]methoxy-hydroxy-phosphoryl]oxy-oxido-phosphoryl] phosphate
   45    47     1     0     0
SMALL
USER_CHARGES

@<TRIPOS>ATOM
      1 PG         -1.0743    1.2819   -7.0145 P.3       1 ATP        -1.1921
      2 O1G        -0.3853    1.8914   -8.2308 O.co2     1 ATP         0.3195
      3 O2G        -1.4004   -0.2012   -7.1529 O.co2     1 ATP         0.3195
      4 O3G        -2.2205    2.1218   -6.4600 O.co2     1 ATP         0.3195
      5 PB          0.8690    2.5942   -5.1529 P.3       1 ATP        -1.1062
      6 O1B         1.7772    3.2102   -6.1938 O.co2     1 ATP         0.3195
      7 O2B        -0.1253    3.4413   -4.3899 O.co2     1 ATP         0.3195
      8 O3B         0.0651    1.3422   -5.8254 O.3       1 ATP         0.4672
      9 PA          2.8890    0.6159   -4.3157 P.3       1 ATP        -0.9715
     10 O1A         4.0478    1.0413   -5.1702 O.2       1 ATP         0.2707
     11 O2A         2.0278   -0.6137   -4.9188 O.3       1 ATP         0.0326
     12 O3A         1.7834    1.7734   -4.0790 O.3       1 ATP         0.4672
     13 O5'         3.2903    0.1346   -2.8241 O.3       1 ATP         0.1618
     14 C5'         2.2816   -0.2918   -1.9206 C.3       1 ATP         0.1504
     15 C4'         2.7248    0.0226   -0.4980 C.3       1 ATP         0.1111
     16 O4'         2.4697    1.4219   -0.2462 O.3       1 ATP        -0.1436
     17 C3'         1.9404   -0.7419    0.5596 C.3       1 ATP         0.1111
     18 O3'         2.7418   -0.8086    1.7389 O.3       1 ATP        -0.2728
     19 C2'         0.7477    0.1630    0.7858 C.3       1 ATP         0.1111
     20 O2'         0.1373   -0.0577    2.0407 O.3       1 ATP        -0.2728
     21 C1'         1.3733    1.5427    0.6747 C.3       1 ATP         0.2693
     22 N9          0.4520    2.5240    0.1767 N.pl3     1 ATP        -0.3222
     23 C8         -0.3054    2.4845   -1.1576 C.ar      1 ATP         0.1640
     24 N7         -1.0755    3.5806   -1.2691 N.2       1 ATP        -0.1640
     25 C5         -0.8043    4.2306   -0.0942 C.ar      1 ATP         0.0820
     26 C6         -1.4324    5.5335    0.2646 C.ar      1 ATP         0.1640
     27 N6         -2.2885    6.1054   -0.5675 N.pl3     1 ATP        -0.4916
     28 N1         -1.0537    6.0229    1.4478 N.pl3     1 ATP        -0.4390
     29 C2         -0.1096    5.3242    2.2908 C.ar      1 ATP         0.5691
     30 N3          0.4468    4.1904    1.9960 N.ar      1 ATP        -0.4283
     31 C4          0.0631    3.6855    0.7877 C.ar      1 ATP         0.2226
     32 HOA2        1.5957   -0.5068   -5.7928 H         1 ATP         0.2010
     33 H5'1        1.3514    0.2330   -2.1577 H         1 ATP        -0.0393
     34 H5'2        2.1280   -1.3678   -2.0460 H         1 ATP        -0.0393
     35 H4'         3.8040   -0.1399   -0.4044 H         1 ATP        -0.0393
     36 H3'         1.6768   -1.7637    0.2732 H         1 ATP        -0.0393
     37 HO3'        2.2231   -1.2979    2.3952 H         1 ATP         0.2010
     38 H2'         0.0002   -0.0084   -0.0014 H         1 ATP        -0.0393
     39 HO2'       -0.6132    0.5577    2.1063 H         1 ATP         0.2010
     40 H1'         1.7718    1.9211    1.6015 H         1 ATP        -0.0393
     41 H8         -0.2991    1.7413   -1.9611 H         1 ATP         0.0000
     42 HN61       -2.5167    5.6603   -1.4447 H         1 ATP         0.2048
     43 HN62       -2.7159    6.9882   -0.3270 H         1 ATP         0.2048
     44 H2          0.1059    5.8491    3.2340 H         1 ATP        -0.1292
     45 H45        -1.4532    6.9099    1.7401 H         1 ATP         0.2048
@<TRIPOS>BOND
     1    1    2 2
     2    1    3 1
     3    1    4 1
     4    1    8 1
     5    5    6 2
     6    5    7 1
     7    5    8 1
     8    5   12 1
     9    9   10 2
    10    9   11 1
    11    9   12 1
    12    9   13 1
    13   11   32 1
    14   13   14 1
    15   14   15 1
    16   14   33 1
    17   14   34 1
    18   15   16 1
    19   15   17 1
    20   15   35 1
    21   16   21 1
    22   17   18 1
    23   17   19 1
    24   17   36 1
    25   18   37 1
    26   19   20 1
    27   19   21 1
    28   19   38 1
    29   20   39 1
    30   21   22 1
    31   21   40 1
    32   22   23 ar
    33   22   31 ar
    34   23   24 ar
    35   23   41 1
    36   24   25 ar
    37   25   26 ar
    38   25   31 ar
    39   26   27 1
    40   26   28 ar
    41   27   42 1
    42   27   43 1
    43   28   29 ar
    44   28   45 1
    45   29   30 ar
    46   29   44 1
    47   30   31 ar
@<TRIPOS>SUBSTRUCTURE
     1 ATP         1 GROUP 0 A     ****
@<TRIPOS>MOLECULE
[[[5-(6-amino-1,8-dihydropurine-6,8-diylium-7-id-9-yl)-3,4-dihydroxy-tetrahydrofuran-2-yl]methoxy-hydroxy-phosphoryl]oxy-oxido-phosphoryl] phosphate
   45    47     1     0     0
SMALL
USER_CHARGES

@<TRIPOS>ATOM
      1 PG          0.6767   -3.5761   -5.1303 P.3       1 ATP        -1.1921
      2 O1G         0.4547   -2.5647   -4.0107 O.co2     1 ATP         0.3195
      3 O2G        -0.5513   -3.8371   -5.9958 O.co2     1 ATP         0.3195
      4 O3G         1.4099   -4.8402   -4.6935 O.co2     1 ATP         0.3195
      5 PB          3.2581   -2.2734   -5.9071 P.3       1 ATP        -1.1062
      6 O1B         4.1071   -3.3805   -5.3230 O.co2     1 ATP         0.3195
      7 O2B         3.6922   -1.5377   -7.1557 O.co2     1 ATP         0.3195
      8 O3B         1.7439   -2.8361   -6.1449 O.3       1 ATP         0.4672
      9 PA          3.9517   -0.1778   -3.9522 P.3       1 ATP        -0.9715
     10 O1A         4.6801    0.7864   -4.8431 O.2       1 ATP         0.2707
     11 O2A         4.9129   -1.1802   -3.1224 O.3       1 ATP         0.0326
     12 O3A         2.9506   -1.1764   -4.7388 O.3       1 ATP         0.4672
     13 O5'         3.0213    0.5153   -2.8245 O.3       1 ATP         0.1618
     14 C5'         2.2816   -0.2918   -1.9206 C.3       1 ATP         0.1504
     15 C4'         2.7248    0.0226   -0.4980 C.3       1 ATP         0.1111
     16 O4'         2.4697    1.4219   -0.2462 O.3       1 ATP        -0.1436
     17 C3'         1.9404   -0.7419    0.5596 C.3       1 ATP         0.1111
     18 O3'         2.7418   -0.8086    1.7389 O.3       1 ATP        -0.2728
     19 C2'         0.7477    0.1630    0.7858 C.3       1 ATP         0.1111
     20 O2'         0.1373   -0.0577    2.0407 O.3       1 ATP        -0.2728
     21 C1'         1.3733    1.5427    0.6747 C.3       1 ATP         0.2693
     22 N9          0.4520    2.5240    0.1767 N.pl3     1 ATP        -0.3222
     23 C8          0.1798    2.8712   -1.2933 C.ar      1 ATP         0.1640
     24 N7         -0.7494    3.8400   -1.3610 N.2       1 ATP        -0.1640
     25 C5         -1.0173    4.0603   -0.0358 C.ar      1 ATP         0.0820
     26 C6         -2.0105    5.0717    0.4241 C.ar      1 ATP         0.1640
     27 N6         -2.6723    5.7982   -0.4628 N.pl3     1 ATP        -0.4916
     28 N1         -2.1445    5.1522    1.7502 N.pl3     1 ATP        -0.4390
     29 C2         -1.3755    4.3143    2.6427 C.ar      1 ATP         0.5691
     30 N3         -0.5075    3.4292    2.2616 N.ar      1 ATP        -0.4283
     31 C4         -0.3667    3.3425    0.9070 C.ar      1 ATP         0.2226
     32 HOA2        5.5083   -1.7836   -3.6159 H         1 ATP         0.2010
     33 H5'1        1.2163   -0.0770   -2.0471 H         1 ATP        -0.0393
     34 H5'2        2.4655   -1.3443   -2.1563 H         1 ATP        -0.0393
     35 H4'         3.8040   -0.1399   -0.4044 H         1 ATP        -0.0393
     36 H3'         1.6768   -1.7637    0.2732 H         1 ATP        -0.0393
     37 HO3'        2.2231   -1.2979    2.3952 H         1 ATP         0.2010
     38 H2'         0.0002   -0.0084   -0.0014 H         1 ATP        -0.0393
     39 HO2'       -0.1554   -0.9852    2.0577 H         1 ATP         0.2010
     40 H1'         1.7718    1.9211    1.6015 H         1 ATP        -0.0393
     41 H8          0.6089    2.4651   -2.2147 H         1 ATP         0.0000
     42 HN61       -2.5055    5.6680   -1.4503 H         1 ATP         0.2048
     43 HN62       -3.3462    6.4841   -0.1542 H         1 ATP         0.2048
     44 H2         -1.5932    4.4937    3.7066 H         1 ATP        -0.1292
     45 H45        -2.8098    5.8270    2.1160 H         1 ATP         0.2048
@<TRIPOS>BOND
     1    1    2 2
     2    1    3 1
     3    1    4 1
     4    1    8 1
     5    5    6 2
     6    5    7 1
     7    5    8 1
     8    5   12 1
     9    9   10 2
    10    9   11 1
    11    9   12 1
    12    9   13 1
    13   11   32 1
    14   13   14 1
    15   14   15 1
    16   14   33 1
    17   14   34 1
    18   15   16 1
    19   15   17 1
    20   15   35 1
    21   16   21 1
    22   17   18 1
    23   17   19 1
    24   17   36 1
    25   18   37 1
    26   19   20 1
    27   19   21 1
    28   19   38 1
    29   20   39 1
    30   21   22 1
    31   21   40 1
    32   22   23 ar
    33   22   31 ar
    34   23   24 ar
    35   23   41 1
    36   24   25 ar
    37   25   26 ar
    38   25   31 ar
    39   26   27 1
    40   26   28 ar
    41   27   42 1
    42   27   43 1
    43   28   29 ar
    44   28   45 1
    45   29   30 ar
    46   29   44 1
    47   30   31 ar
@<TRIPOS>SUBSTRUCTURE
     1 ATP         1 GROUP 0 A     ****
@<TRIPOS>MOLECULE
[[[5-(6-amino-1,8-dihydropurine-6,8-diylium-7-id-9-yl)-3,4-dihydroxy-tetrahydrofuran-2-yl]methoxy-hydroxy-phosphoryl]oxy-oxido-phosphoryl] phosphate
   45    47     1     0     0
SMALL
USER_CHARGES

@<TRIPOS>ATOM
      1 PG         -1.6778   -0.2707   -5.2014 P.3       1 ATP        -1.1921
      2 O1G        -1.8138    0.3221   -6.5998 O.co2     1 ATP         0.3195
      3 O2G        -2.9736   -0.8324   -4.6267 O.co2     1 ATP         0.3195
      4 O3G        -0.8918    0.6011   -4.2273 O.co2     1 ATP         0.3195
      5 PB          0.8072   -1.7482   -5.9799 P.3       1 ATP        -1.1062
      6 O1B         0.9960   -3.1583   -6.4934 O.co2     1 ATP         0.3195
      7 O2B         1.1091   -0.5543   -6.8586 O.co2     1 ATP         0.3195
      8 O3B        -0.7143   -1.5916   -5.4085 O.3       1 ATP         0.4672
      9 PA          1.5771   -2.4667   -3.2257 P.3       1 ATP        -0.9715
     10 O1A         1.9405   -3.9104   -3.4192 O.2       1 ATP         0.2707
     11 O2A         0.0761   -2.2218   -2.6739 O.3       1 ATP         0.0326
     12 O3A         1.6317   -1.5847   -4.5811 O.3       1 ATP         0.4672
     13 O5'         2.5245   -1.6648   -2.1878 O.3       1 ATP         0.1618
     14 C5'         2.2816   -0.2918   -1.9206 C.3       1 ATP         0.1504
     15 C4'         2.7248    0.0226   -0.4980 C.3       1 ATP         0.1111
     16 O4'         2.4697    1.4219   -0.2462 O.3       1 ATP        -0.1436
     17 C3'         1.9404   -0.7419    0.5596 C.3       1 ATP         0.1111
     18 O3'         2.7418   -0.8086    1.7389 O.3       1 ATP        -0.2728
     19 C2'         0.7477    0.1630    0.7858 C.3       1 ATP         0.1111
     20 O2'         0.1373   -0.0577    2.0407 O.3       1 ATP        -0.2728
     21 C1'         1.3733    1.5427    0.6747 C.3       1 ATP         0.2693
     22 N9          0.4520    2.5240    0.1767 N.pl3     1 ATP        -0.3222
     23 C8          0.1798    2.8712   -1.2933 C.ar      1 ATP         0.1640
     24 N7         -0.7494    3.8400   -1.3610 N.2       1 ATP        -0.1640
     25 C5         -1.0173    4.0603   -0.0358 C.ar      1 ATP         0.0820
     26 C6         -2.0105    5.0717    0.4241 C.ar      1 ATP         0.1640
     27 N6         -2.6723    5.7982   -0.4628 N.pl3     1 ATP        -0.4916
     28 N1         -2.1445    5.1522    1.7502 N.pl3     1 ATP        -0.4390
     29 C2         -1.3755    4.3143    2.6427 C.ar      1 ATP         0.5691
     30 N3         -0.5075    3.4292    2.2616 N.ar      1 ATP        -0.4283
     31 C4         -0.3667    3.3425    0.9070 C.ar      1 ATP         0.2226
     32 HOA2       -0.1792   -2.6042   -1.8075 H         1 ATP         0.2010
     33 H5'1        2.8432    0.3119   -2.6398 H         1 ATP        -0.0393
     34 H5'2        1.2128   -0.0927   -2.0428 H         1 ATP        -0.0393
     35 H4'         3.8040   -0.1399   -0.4044 H         1 ATP        -0.0393
     36 H3'         1.6768   -1.7637    0.2732 H         1 ATP        -0.0393
     37 HO3'        2.2231   -1.2979    2.3952 H         1 ATP         0.2010
     38 H2'         0.0002   -0.0084   -0.0014 H         1 ATP        -0.0393
     39 HO2'       -0.6132    0.5577    2.1063 H         1 ATP         0.2010
     40 H1'         1.7718    1.9211    1.6015 H         1 ATP        -0.0393
     41 H8          0.6089    2.4651   -2.2147 H         1 ATP         0.0000
     42 HN61       -2.5055    5.6680   -1.4503 H         1 ATP         0.2048
     43 HN62       -3.3462    6.4841   -0.1542 H         1 ATP         0.2048
     44 H2         -1.5932    4.4937    3.7066 H         1 ATP        -0.1292
     45 H45        -2.8098    5.8270    2.1160 H         1 ATP         0.2048
@<TRIPOS>BOND
     1    1    2 2
     2    1    3 1
     3    1    4 1
     4    1    8 1
     5    5    6 2
     6    5    7 1
     7    5    8 1
     8    5   12 1
     9    9   10 2
    10    9   11 1
    11    9   12 1
    12    9   13 1
    13   11   32 1
    14   13   14 1
    15   14   15 1
    16   14   33 1
    17   14   34 1
    18   15   16 1
    19   15   17 1
    20   15   35 1
    21   16   21 1
    22   17   18 1
    23   17   19 1
    24   17   36 1
    25   18   37 1
    26   19   20 1
    27   19   21 1
    28   19   38 1
    29   20   39 1
    30   21   22 1
    31   21   40 1
    32   22   23 ar
    33   22   31 ar
    34   23   24 ar
    35   23   41 1
    36   24   25 ar
    37   25   26 ar
    38   25   31 ar
    39   26   27 1
    40   26   28 ar
    41   27   42 1
    42   27   43 1
    43   28   29 ar
    44   28   45 1
    45   29   30 ar
    46   29   44 1
    47   30   31 ar
@<TRIPOS>SUBSTRUCTURE
     1 ATP         1 GROUP 0 A     ****
@<TRIPOS>MOLECULE
[[[5-(6-amino-1,8-dihydropurine-6,8-diylium-7-id-9-yl)-3,4-dihydroxy-tetrahydrofuran-2-yl]methoxy-hydroxy-phosphoryl]oxy-oxido-phosphoryl] phosphate
   45    47     1     0     0
SMALL
USER_CHARGES

@<TRIPOS>ATOM
      1 PG          4.4548   -1.5724   -8.5606 P.3       1 ATP        -1.1921
      2 O1G         3.2722   -2.1855   -9.3031 O.co2     1 ATP         0.3195
      3 O2G         4.8800   -0.2018   -9.0761 O.co2     1 ATP         0.3195
      4 O3G         5.6136   -2.5364   -8.3277 O.co2     1 ATP         0.3195
      5 PB          3.2581   -2.2734   -5.9071 P.3       1 ATP        -1.1062
      6 O1B         1.9445   -2.8317   -6.4075 O.co2     1 ATP         0.3195
      7 O2B         4.3601   -3.1918   -5.4267 O.co2     1 ATP         0.3195
      8 O3B         3.8792   -1.2799   -7.0443 O.3       1 ATP         0.4672
      9 PA          3.9517   -0.1778   -3.9522 P.3       1 ATP        -0.9715
     10 O1A         4.6801    0.7864   -4.8431 O.2       1 ATP         0.2707
     11 O2A         4.9129   -1.1802   -3.1224 O.3       1 ATP         0.0326
     12 O3A         2.9506   -1.1764   -4.7388 O.3       1 ATP         0.4672
     13 O5'         3.0213    0.5153   -2.8245 O.3       1 ATP         0.1618
     14 C5'         2.2816   -0.2918   -1.9206 C.3       1 ATP         0.1504
     15 C4'         2.7248    0.0226   -0.4980 C.3       1 ATP         0.1111
     16 O4'         2.4697    1.4219   -0.2462 O.3       1 ATP        -0.1436
     17 C3'         1.9404   -0.7419    0.5596 C.3       1 ATP         0.1111
     18 O3'         2.7418   -0.8086    1.7389 O.3       1 ATP        -0.2728
     19 C2'         0.7477    0.1630    0.7858 C.3       1 ATP         0.1111
     20 O2'         0.1373   -0.0577    2.0407 O.3       1 ATP        -0.2728
     21 C1'         1.3733    1.5427    0.6747 C.3       1 ATP         0.2693
     22 N9          0.4520    2.5240    0.1767 N.pl3     1 ATP        -0.3222
     23 C8          0.1798    2.8712   -1.2933 C.ar      1 ATP         0.1640
     24 N7         -0.7494    3.8400   -1.3610 N.2       1 ATP        -0.1640
     25 C5         -1.0173    4.0603   -0.0358 C.ar      1 ATP         0.0820
     26 C6         -2.0105    5.0717    0.4241 C.ar      1 ATP         0.1640
     27 N6         -2.6723    5.7982   -0.4628 N.pl3     1 ATP        -0.4916
     28 N1         -2.1445    5.1522    1.7502 N.pl3     1 ATP        -0.4390
     29 C2         -1.3755    4.3143    2.6427 C.ar      1 ATP         0.5691
     30 N3         -0.5075    3.4292    2.2616 N.ar      1 ATP        -0.4283
     31 C4         -0.3667    3.3425    0.9070 C.ar      1 ATP         0.2226
     32 HOA2        5.5708   -0.8011   -2.5015 H         1 ATP         0.2010
     33 H5'1        1.2163   -0.0770   -2.0471 H         1 ATP        -0.0393
     34 H5'2        2.4655   -1.3443   -2.1563 H         1 ATP        -0.0393
     35 H4'         3.8040   -0.1399   -0.4044 H         1 ATP        -0.0393
     36 H3'         1.6768   -1.7637    0.2732 H         1 ATP        -0.0393
     37 HO3'        2.2231   -1.2979    2.3952 H         1 ATP         0.2010
     38 H2'         0.0002   -0.0084   -0.0014 H         1 ATP        -0.0393
     39 HO2'       -0.6132    0.5577    2.1063 H         1 ATP         0.2010
     40 H1'         1.7718    1.9211    1.6015 H         1 ATP        -0.0393
     41 H8          0.6089    2.4651   -2.2147 H         1 ATP         0.0000
     42 HN61       -2.5055    5.6680   -1.4503 H         1 ATP         0.2048
     43 HN62       -3.3462    6.4841   -0.1542 H         1 ATP         0.2048
     44 H2         -1.5932    4.4937    3.7066 H         1 ATP        -0.1292
     45 H45        -2.8098    5.8270    2.1160 H         1 ATP         0.2048
@<TRIPOS>BOND
     1    1    2 2
     2    1    3 1
     3    1    4 1
     4    1    8 1
     5    5    6 2
     6    5    7 1
     7    5    8 1
     8    5   12 1
     9    9   10 2
    10    9   11 1
    11    9   12 1
    12    9   13 1
    13   11   32 1
    14   13   14 1
    15   14   15 1
    16   14   33 1
    17   14   34 1
    18   15   16 1
    19   15   17 1
    20   15   35 1
    21   16   21 1
    22   17   18 1
    23   17   19 1
    24   17   36 1
    25   18   37 1
    26   19   20 1
    27   19   21 1
    28   19   38 1
    29   20   39 1
    30   21   22 1
    31   21   40 1
    32   22   23 ar
    33   22   31 ar
    34   23   24 ar
    35   23   41 1
    36   24   25 ar
    37   25   26 ar
    38   25   31 ar
    39   26   27 1
    40   26   28 ar
    41   27   42 1
    42   27   43 1
    43   28   29 ar
    44   28   45 1
    45   29   30 ar
    46   29   44 1
    47   30   31 ar
@<TRIPOS>SUBSTRUCTURE
     1 ATP         1 GROUP 0 A     ****
@<TRIPOS>MOLECULE
[[[5-(6-amino-1,8-dihydropurine-6,8-diylium-7-id-9-yl)-3,4-dihydroxy-tetrahydrofuran-2-yl]methoxy-hydroxy-phosphoryl]oxy-oxido-phosphoryl] phosphate
   45    47     1     0     0
SMALL
USER_CHARGES

@<TRIPOS>ATOM
      1 PG          5.1067   -4.6007   -5.5455 P.3       1 ATP        -1.1921
      2 O1G         5.9538   -4.1668   -6.7370 O.co2     1 ATP         0.3195
      3 O2G         5.9105   -4.9894   -4.3095 O.co2     1 ATP         0.3195
      4 O3G         3.9917   -5.5808   -5.8960 O.co2     1 ATP         0.3195
      5 PB          3.2581   -2.2734   -5.9071 P.3       1 ATP        -1.1062
      6 O1B         3.9975   -1.5883   -7.0347 O.co2     1 ATP         0.3195
      7 O2B         1.9939   -3.0610   -6.1722 O.co2     1 ATP         0.3195
      8 O3B         4.3001   -3.2352   -5.0976 O.3       1 ATP         0.4672
      9 PA          3.9517   -0.1778   -3.9522 P.3       1 ATP        -0.9715
     10 O1A         4.6801    0.7864   -4.8431 O.2       1 ATP         0.2707
     11 O2A         4.9129   -1.1802   -3.1224 O.3       1 ATP         0.0326
     12 O3A         2.9506   -1.1764   -4.7388 O.3       1 ATP         0.4672
     13 O5'         3.0213    0.5153   -2.8245 O.3       1 ATP         0.1618
     14 C5'         2.2816   -0.2918   -1.9206 C.3       1 ATP         0.1504
     15 C4'         2.7248    0.0226   -0.4980 C.3       1 ATP         0.1111
     16 O4'         2.4697    1.4219   -0.2462 O.3       1 ATP        -0.1436
     17 C3'         1.9404   -0.7419    0.5596 C.3       1 ATP         0.1111
     18 O3'         2.7418   -0.8086    1.7389 O.3       1 ATP        -0.2728
     19 C2'         0.7477    0.1630    0.7858 C.3       1 ATP         0.1111
     20 O2'         0.1373   -0.0577    2.0407 O.3       1 ATP        -0.2728
     21 C1'         1.3733    1.5427    0.6747 C.3       1 ATP         0.2693
     22 N9          0.4520    2.5240    0.1767 N.pl3     1 ATP        -0.3222
     23 C8          0.1798    2.8712   -1.2933 C.ar      1 ATP         0.1640
     24 N7         -0.7494    3.8400   -1.3610 N.2       1 ATP        -0.1640
     25 C5         -1.0173    4.0603   -0.0358 C.ar      1 ATP         0.0820
     26 C6         -2.0105    5.0717    0.4241 C.ar      1 ATP         0.1640
     27 N6         -2.6723    5.7982   -0.4628 N.pl3     1 ATP        -0.4916
     28 N1         -2.1445    5.1522    1.7502 N.pl3     1 ATP        -0.4390
     29 C2         -1.3755    4.3143    2.6427 C.ar      1 ATP         0.5691
     30 N3         -0.5075    3.4292    2.2616 N.ar      1 ATP        -0.4283
     31 C4         -0.3667    3.3425    0.9070 C.ar      1 ATP         0.2226
     32 HOA2        5.5708   -0.8011   -2.5015 H         1 ATP         0.2010
     33 H5'1        1.2163   -0.0770   -2.0471 H         1 ATP        -0.0393
     34 H5'2        2.4655   -1.3443   -2.1563 H         1 ATP        -0.0393
     35 H4'         3.8040   -0.1399   -0.4044 H         1 ATP        -0.0393
     36 H3'         1.6768   -1.7637    0.2732 H         1 ATP        -0.0393
     37 HO3'        2.2231   -1.2979    2.3952 H         1 ATP         0.2010
     38 H2'         0.0002   -0.0084   -0.0014 H         1 ATP        -0.0393
     39 HO2'       -0.6132    0.5577    2.1063 H         1 ATP         0.2010
     40 H1'         1.7718    1.9211    1.6015 H         1 ATP        -0.0393
     41 H8          0.6089    2.4651   -2.2147 H         1 ATP         0.0000
     42 HN61       -2.5055    5.6680   -1.4503 H         1 ATP         0.2048
     43 HN62       -3.3462    6.4841   -0.1542 H         1 ATP         0.2048
     44 H2         -1.5932    4.4937    3.7066 H         1 ATP        -0.1292
     45 H45        -2.8098    5.8270    2.1160 H         1 ATP         0.2048
@<TRIPOS>BOND
     1    1    2 2
     2    1    3 1
     3    1    4 1
     4    1    8 1
     5    5    6 2
     6    5    7 1
     7    5    8 1
     8    5   12 1
     9    9   10 2
    10    9   11 1
    11    9   12 1
    12    9   13 1
    13   11   32 1
    14   13   14 1
    15   14   15 1
    16   14   33 1
    17   14   34 1
    18   15   16 1
    19   15   17 1
    20   15   35 1
    21   16   21 1
    22   17   18 1
    23   17   19 1
    24   17   36 1
    25   18   37 1
    26   19   20 1
    27   19   21 1
    28   19   38 1
    29   20   39 1
    30   21   22 1
    31   21   40 1
    32   22   23 ar
    33   22   31 ar
    34   23   24 ar
    35   23   41 1
    36   24   25 ar
    37   25   26 ar
    38   25   31 ar
    39   26   27 1
    40   26   28 ar
    41   27   42 1
    42   27   43 1
    43   28   29 ar
    44   28   45 1
    45   29   30 ar
    46   29   44 1
    47   30   31 ar
@<TRIPOS>SUBSTRUCTURE
     1 ATP         1 GROUP 0 A     ****
@<TRIPOS>MOLECULE
[[[5-(6-amino-1,8-dihydropurine-6,8-diylium-7-id-9-yl)-3,4-dihydroxy-tetrahydrofuran-2-yl]methoxy-hydroxy-phosphoryl]oxy-oxido-phosphoryl] phosphate
   45    47     1     0     0
SMALL
USER_CHARGES

@<TRIPOS>ATOM
      1 PG          5.8687    1.5542   -4.6390 P.3       1 ATP        -1.1921
      2 O1G         5.0999    1.4252   -3.3283 O.co2     1 ATP         0.3195
      3 O2G         7.3107    2.0235   -4.4797 O.co2     1 ATP         0.3195
      4 O3G         5.1004    2.2693   -5.7458 O.co2     1 ATP         0.3195
      5 PB          4.8711   -1.1067   -5.5816 P.3       1 ATP        -1.1062
      6 O1B         3.9123   -0.5034   -6.5838 O.co2     1 ATP         0.3195
      7 O2B         5.5751   -2.4144   -5.8697 O.co2     1 ATP         0.3195
      8 O3B         5.9995    0.0069   -5.1910 O.3       1 ATP         0.4672
      9 PA          2.8586   -2.1486   -3.6952 P.3       1 ATP        -0.9715
     10 O1A         3.0949   -3.6238   -3.8422 O.2       1 ATP         0.2707
     11 O2A         1.6347   -1.5744   -4.5840 O.3       1 ATP         0.0326
     12 O3A         4.1145   -1.2311   -4.1411 O.3       1 ATP         0.4672
     13 O5'         2.5245   -1.6648   -2.1878 O.3       1 ATP         0.1618
     14 C5'         2.2816   -0.2918   -1.9206 C.3       1 ATP         0.1504
     15 C4'         2.7248    0.0226   -0.4980 C.3       1 ATP         0.1111
     16 O4'         2.4697    1.4219   -0.2462 O.3       1 ATP        -0.1436
     17 C3'         1.9404   -0.7419    0.5596 C.3       1 ATP         0.1111
     18 O3'         2.7418   -0.8086    1.7389 O.3       1 ATP        -0.2728
     19 C2'         0.7477    0.1630    0.7858 C.3       1 ATP         0.1111
     20 O2'         0.1373   -0.0577    2.0407 O.3       1 ATP        -0.2728
     21 C1'         1.3733    1.5427    0.6747 C.3       1 ATP         0.2693
     22 N9          0.4520    2.5240    0.1767 N.pl3     1 ATP        -0.3222
     23 C8          0.1798    2.8712   -1.2933 C.ar      1 ATP         0.1640
     24 N7         -0.7494    3.8400   -1.3610 N.2       1 ATP        -0.1640
     25 C5         -1.0173    4.0603   -0.0358 C.ar      1 ATP         0.0820
     26 C6         -2.0105    5.0717    0.4241 C.ar      1 ATP         0.1640
     27 N6         -2.6723    5.7982   -0.4628 N.pl3     1 ATP        -0.4916
     28 N1         -2.1445    5.1522    1.7502 N.pl3     1 ATP        -0.4390
     29 C2         -1.3755    4.3143    2.6427 C.ar      1 ATP         0.5691
     30 N3         -0.5075    3.4292    2.2616 N.ar      1 ATP        -0.4283
     31 C4         -0.3667    3.3425    0.9070 C.ar      1 ATP         0.2226
     32 HOA2        0.7330   -1.9312   -4.4366 H         1 ATP         0.2010
     33 H5'1        2.8432    0.3119   -2.6398 H         1 ATP        -0.0393
     34 H5'2        1.2128   -0.0927   -2.0428 H         1 ATP        -0.0393
     35 H4'         3.8040   -0.1399   -0.4044 H         1 ATP        -0.0393
     36 H3'         1.6768   -1.7637    0.2732 H         1 ATP        -0.0393
     37 HO3'        2.2231   -1.2979    2.3952 H         1 ATP         0.2010
     38 H2'         0.0002   -0.0084   -0.0014 H         1 ATP        -0.0393
     39 HO2'       -0.6132    0.5577    2.1063 H         1 ATP         0.2010
     40 H1'         1.7718    1.9211    1.6015 H         1 ATP        -0.0393
     41 H8          0.6089    2.4651   -2.2147 H         1 ATP         0.0000
     42 HN61       -2.5055    5.6680   -1.4503 H         1 ATP         0.2048
     43 HN62       -3.3462    6.4841   -0.1542 H         1 ATP         0.2048
     44 H2         -1.5932    4.4937    3.7066 H         1 ATP        -0.1292
     45 H45        -2.8098    5.8270    2.1160 H         1 ATP         0.2048
@<TRIPOS>BOND
     1    1    2 2
     2    1    3 1
     3    1    4 1
     4    1    8 1
     5    5    6 2
     6    5    7 1
     7    5    8 1
     8    5   12 1
     9    9   10 2
    10    9   11 1
    11    9   12 1
    12    9   13 1
    13   11   32 1
    14   13   14 1
    15   14   15 1
    16   14   33 1
    17   14   34 1
    18   15   16 1
    19   15   17 1
    20   15   35 1
    21   16   21 1
    22   17   18 1
    23   17   19 1
    24   17   36 1
    25   18   37 1
    26   19   20 1
    27   19   21 1
    28   19   38 1
    29   20   39 1
    30   21   22 1
    31   21   40 1
    32   22   23 ar
    33   22   31 ar
    34   23   24 ar
    35   23   41 1
    36   24   25 ar
    37   25   26 ar
    38   25   31 ar
    39   26   27 1
    40   26   28 ar
    41   27   42 1
    42   27   43 1
    43   28   29 ar
    44   28   45 1
    45   29   30 ar
    46   29   44 1
    47   30   31 ar
@<TRIPOS>SUBSTRUCTURE
     1 ATP         1 GROUP 0 A     ****
@<TRIPOS>MOLECULE
[[[5-(6-amino-1,8-dihydropurine-6,8-diylium-7-id-9-yl)-3,4-dihydroxy-tetrahydrofuran-2-yl]methoxy-hydroxy-phosphoryl]oxy-oxido-phosphoryl] phosphate
   45    47     1     0     0
SMALL
USER_CHARGES

@<TRIPOS>ATOM
      1 PG         -1.0608   -1.9368   -5.1042 P.3       1 ATP        -1.1921
      2 O1G        -1.8268   -1.3786   -3.9094 O.co2     1 ATP         0.3195
      3 O2G        -1.9411   -2.5673   -6.1777 O.co2     1 ATP         0.3195
      4 O3G         0.1582   -2.7732   -4.7289 O.co2     1 ATP         0.3195
      5 PB          0.6165    0.5364   -5.2890 P.3       1 ATP        -1.1062
      6 O1B         0.9979    1.4404   -6.4400 O.co2     1 ATP         0.3195
      7 O2B         0.0562    1.1075   -4.0050 O.co2     1 ATP         0.3195
      8 O3B        -0.4137   -0.6078   -5.8328 O.3       1 ATP         0.4672
      9 PA          3.3423   -0.0257   -4.3151 P.3       1 ATP        -0.9715
     10 O1A         4.1311    0.9234   -5.1701 O.2       1 ATP         0.2707
     11 O2A         4.0498   -1.4615   -4.0799 O.3       1 ATP         0.0326
     12 O3A         1.8928   -0.4118   -4.9217 O.3       1 ATP         0.4672
     13 O5'         3.0213    0.5153   -2.8245 O.3       1 ATP         0.1618
     14 C5'         2.2816   -0.2918   -1.9206 C.3       1 ATP         0.1504
     15 C4'         2.7248    0.0226   -0.4980 C.3       1 ATP         0.1111
     16 O4'         2.4697    1.4219   -0.2462 O.3       1 ATP        -0.1436
     17 C3'         1.9404   -0.7419    0.5596 C.3       1 ATP         0.1111
     18 O3'         2.7418   -0.8086    1.7389 O.3       1 ATP        -0.2728
     19 C2'         0.7477    0.1630    0.7858 C.3       1 ATP         0.1111
     20 O2'         0.1373   -0.0577    2.0407 O.3       1 ATP        -0.2728
     21 C1'         1.3733    1.5427    0.6747 C.3       1 ATP         0.2693
     22 N9          0.4520    2.5240    0.1767 N.pl3     1 ATP        -0.3222
     23 C8          0.5793    3.3338   -1.1209 C.ar      1 ATP         0.1640
     24 N7         -0.4807    4.1508   -1.2458 N.2       1 ATP        -0.1640
     25 C5         -1.1921    3.8572   -0.1126 C.ar      1 ATP         0.0820
     26 C6         -2.4855    4.5203    0.2163 C.ar      1 ATP         0.1640
     27 N6         -2.9873    5.4319   -0.6020 N.pl3     1 ATP        -0.4916
     28 N1         -3.0414    4.1119    1.3596 N.pl3     1 ATP        -0.4390
     29 C2         -2.4169    3.1071    2.1904 C.ar      1 ATP         0.5691
     30 N3         -1.2928    2.5191    1.9210 N.ar      1 ATP        -0.4283
     31 C4         -0.7202    2.9326    0.7534 C.ar      1 ATP         0.2226
     32 HOA2        4.9282   -1.4920   -3.6444 H         1 ATP         0.2010
     33 H5'1        1.2163   -0.0770   -2.0471 H         1 ATP        -0.0393
     34 H5'2        2.4655   -1.3443   -2.1563 H         1 ATP        -0.0393
     35 H4'         3.8040   -0.1399   -0.4044 H         1 ATP        -0.0393
     36 H3'         1.6768   -1.7637    0.2732 H         1 ATP        -0.0393
     37 HO3'        2.2231   -1.2979    2.3952 H         1 ATP         0.2010
     38 H2'         0.0002   -0.0084   -0.0014 H         1 ATP        -0.0393
     39 HO2'       -0.1554   -0.9852    2.0577 H         1 ATP         0.2010
     40 H1'         1.7718    1.9211    1.6015 H         1 ATP        -0.0393
     41 H8          1.3565    3.3309   -1.8916 H         1 ATP         0.0000
     42 HN61       -2.4952    5.6785   -1.4487 H         1 ATP         0.2048
     43 HN62       -3.8637    5.8828   -0.3819 H         1 ATP         0.2048
     44 H2         -2.9911    2.8734    3.1000 H         1 ATP        -0.1292
     45 H45        -3.9253    4.5332    1.6302 H         1 ATP         0.2048
@<TRIPOS>BOND
     1    1    2 2
     2    1    3 1
     3    1    4 1
     4    1    8 1
     5    5    6 2
     6    5    7 1
     7    5    8 1
     8    5   12 1
     9    9   10 2
    10    9   11 1
    11    9   12 1
    12    9   13 1
    13   11   32 1
    14   13   14 1
    15   14   15 1
    16   14   33 1
    17   14   34 1
    18   15   16 1
    19   15   17 1
    20   15   35 1
    21   16   21 1
    22   17   18 1
    23   17   19 1
    24   17   36 1
    25   18   37 1
    26   19   20 1
    27   19   21 1
    28   19   38 1
    29   20   39 1
    30   21   22 1
    31   21   40 1
    32   22   23 ar
    33   22   31 ar
    34   23   24 ar
    35   23   41 1
    36   24   25 ar
    37   25   26 ar
    38   25   31 ar
    39   26   27 1
    40   26   28 ar
    41   27   42 1
    42   27   43 1
    43   28   29 ar
    44   28   45 1
    45   29   30 ar
    46   29   44 1
    47   30   31 ar
@<TRIPOS>SUBSTRUCTURE
     1 ATP         1 GROUP 0 A     ****
@<TRIPOS>MOLECULE
[[[5-(6-amino-1,8-dihydropurine-6,8-diylium-7-id-9-yl)-3,4-dihydroxy-tetrahydrofuran-2-yl]methoxy-hydroxy-phosphoryl]oxy-oxido-phosphoryl] phosphate
   45    47     1     0     0
SMALL
USER_CHARGES

@<TRIPOS>ATOM
      1 PG          7.7500    0.6577   -4.6318 P.3       1 ATP        -1.1921
      2 O1G         8.6742   -0.5138   -4.9462 O.co2     1 ATP         0.3195
      3 O2G         7.6332    1.6859   -5.7517 O.co2     1 ATP         0.3195
      4 O3G         7.9606    1.2654   -3.2487 O.co2     1 ATP         0.3195
      5 PB          5.6420   -1.1838   -3.5689 P.3       1 ATP        -1.1062
      6 O1B         6.3229   -2.4950   -3.8922 O.co2     1 ATP         0.3195
      7 O2B         5.6089   -0.6539   -2.1523 O.co2     1 ATP         0.3195
      8 O3B         6.2499   -0.0181   -4.5373 O.3       1 ATP         0.4672
      9 PA          2.8586   -2.1486   -3.6952 P.3       1 ATP        -0.9715
     10 O1A         3.0949   -3.6238   -3.8422 O.2       1 ATP         0.2707
     11 O2A         1.6347   -1.5744   -4.5840 O.3       1 ATP         0.0326
     12 O3A         4.1145   -1.2311   -4.1411 O.3       1 ATP         0.4672
     13 O5'         2.5245   -1.6648   -2.1878 O.3       1 ATP         0.1618
     14 C5'         2.2816   -0.2918   -1.9206 C.3       1 ATP         0.1504
     15 C4'         2.7248    0.0226   -0.4980 C.3       1 ATP         0.1111
     16 O4'         2.4697    1.4219   -0.2462 O.3       1 ATP        -0.1436
     17 C3'         1.9404   -0.7419    0.5596 C.3       1 ATP         0.1111
     18 O3'         2.7418   -0.8086    1.7389 O.3       1 ATP        -0.2728
     19 C2'         0.7477    0.1630    0.7858 C.3       1 ATP         0.1111
     20 O2'         0.1373   -0.0577    2.0407 O.3       1 ATP        -0.2728
     21 C1'         1.3733    1.5427    0.6747 C.3       1 ATP         0.2693
     22 N9          0.4520    2.5240    0.1767 N.pl3     1 ATP        -0.3222
     23 C8          0.1798    2.8712   -1.2933 C.ar      1 ATP         0.1640
     24 N7         -0.7494    3.8400   -1.3610 N.2       1 ATP        -0.1640
     25 C5         -1.0173    4.0603   -0.0358 C.ar      1 ATP         0.0820
     26 C6         -2.0105    5.0717    0.4241 C.ar      1 ATP         0.1640
     27 N6         -2.6723    5.7982   -0.4628 N.pl3     1 ATP        -0.4916
     28 N1         -2.1445    5.1522    1.7502 N.pl3     1 ATP        -0.4390
     29 C2         -1.3755    4.3143    2.6427 C.ar      1 ATP         0.5691
     30 N3         -0.5075    3.4292    2.2616 N.ar      1 ATP        -0.4283
     31 C4         -0.3667    3.3425    0.9070 C.ar      1 ATP         0.2226
     32 HOA2        0.7330   -1.9312   -4.4366 H         1 ATP         0.2010
     33 H5'1        2.8432    0.3119   -2.6398 H         1 ATP        -0.0393
     34 H5'2        1.2128   -0.0927   -2.0428 H         1 ATP        -0.0393
     35 H4'         3.8040   -0.1399   -0.4044 H         1 ATP        -0.0393
     36 H3'         1.6768   -1.7637    0.2732 H         1 ATP        -0.0393
     37 HO3'        2.2231   -1.2979    2.3952 H         1 ATP         0.2010
     38 H2'         0.0002   -0.0084   -0.0014 H         1 ATP        -0.0393
     39 HO2'       -0.6132    0.5577    2.1063 H         1 ATP         0.2010
     40 H1'         1.7718    1.9211    1.6015 H         1 ATP        -0.0393
     41 H8          0.6089    2.4651   -2.2147 H         1 ATP         0.0000
     42 HN61       -2.5055    5.6680   -1.4503 H         1 ATP         0.2048
     43 HN62       -3.3462    6.4841   -0.1542 H         1 ATP         0.2048
     44 H2         -1.5932    4.4937    3.7066 H         1 ATP        -0.1292
     45 H45        -2.8098    5.8270    2.1160 H         1 ATP         0.2048
@<TRIPOS>BOND
     1    1    2 2
     2    1    3 1
     3    1    4 1
     4    1    8 1
     5    5    6 2
     6    5    7 1
     7    5    8 1
     8    5   12 1
     9    9   10 2
    10    9   11 1
    11    9   12 1
    12    9   13 1
    13   11   32 1
    14   13   14 1
    15   14   15 1
    16   14   33 1
    17   14   34 1
    18   15   16 1
    19   15   17 1
    20   15   35 1
    21   16   21 1
    22   17   18 1
    23   17   19 1
    24   17   36 1
    25   18   37 1
    26   19   20 1
    27   19   21 1
    28   19   38 1
    29   20   39 1
    30   21   22 1
    31   21   40 1
    32   22   23 ar
    33   22   31 ar
    34   23   24 ar
    35   23   41 1
    36   24   25 ar
    37   25   26 ar
    38   25   31 ar
    39   26   27 1
    40   26   28 ar
    41   27   42 1
    42   27   43 1
    43   28   29 ar
    44   28   45 1
    45   29   30 ar
    46   29   44 1
    47   30   31 ar
@<TRIPOS>SUBSTRUCTURE
     1 ATP         1 GROUP 0 A     ****
@<TRIPOS>MOLECULE
[[[5-(6-amino-1,8-dihydropurine-6,8-diylium-7-id-9-yl)-3,4-dihydroxy-tetrahydrofuran-2-yl]methoxy-hydroxy-phosphoryl]oxy-oxido-phosphoryl] phosphate
   45    47     1     0     0
SMALL
USER_CHARGES

@<TRIPOS>ATOM
      1 PG         -0.3623    5.0656   -5.7566 P.3       1 ATP        -1.1921
      2 O1G        -1.7204    5.2931   -5.1014 O.co2     1 ATP         0.3195
      3 O2G         0.6384    6.1956   -5.5405 O.co2     1 ATP         0.3195
      4 O3G        -0.4392    4.5697   -7.1971 O.co2     1 ATP         0.3195
      5 PB         -0.2459    2.2552   -4.7307 P.3       1 ATP        -1.1062
      6 O1B        -1.5139    2.2774   -3.9065 O.co2     1 ATP         0.3195
      7 O2B        -0.2022    1.5544   -6.0707 O.co2     1 ATP         0.3195
      8 O3B         0.2788    3.7876   -4.9371 O.3       1 ATP         0.4672
      9 PA          2.3603    0.9703   -4.2294 P.3       1 ATP        -0.9715
     10 O1A         3.2464    1.8206   -5.0928 O.2       1 ATP         0.2707
     11 O2A         1.8826   -0.4137   -4.9178 O.3       1 ATP         0.0326
     12 O3A         0.9707    1.6829   -3.8059 O.3       1 ATP         0.4672
     13 O5'         3.0213    0.5153   -2.8245 O.3       1 ATP         0.1618
     14 C5'         2.2816   -0.2918   -1.9206 C.3       1 ATP         0.1504
     15 C4'         2.7248    0.0226   -0.4980 C.3       1 ATP         0.1111
     16 O4'         2.4697    1.4219   -0.2462 O.3       1 ATP        -0.1436
     17 C3'         1.9404   -0.7419    0.5596 C.3       1 ATP         0.1111
     18 O3'         2.7418   -0.8086    1.7389 O.3       1 ATP        -0.2728
     19 C2'         0.7477    0.1630    0.7858 C.3       1 ATP         0.1111
     20 O2'         0.1373   -0.0577    2.0407 O.3       1 ATP        -0.2728
     21 C1'         1.3733    1.5427    0.6747 C.3       1 ATP         0.2693
     22 N9          0.4520    2.5240    0.1767 N.pl3     1 ATP        -0.3222
     23 C8          0.5793    3.3338   -1.1209 C.ar      1 ATP         0.1640
     24 N7         -0.4807    4.1508   -1.2458 N.2       1 ATP        -0.1640
     25 C5         -1.1921    3.8572   -0.1126 C.ar      1 ATP         0.0820
     26 C6         -2.4855    4.5203    0.2163 C.ar      1 ATP         0.1640
     27 N6         -2.9873    5.4319   -0.6020 N.pl3     1 ATP        -0.4916
     28 N1         -3.0414    4.1119    1.3596 N.pl3     1 ATP        -0.4390
     29 C2         -2.4169    3.1071    2.1904 C.ar      1 ATP         0.5691
     30 N3         -1.2928    2.5191    1.9210 N.ar      1 ATP        -0.4283
     31 C4         -0.7202    2.9326    0.7534 C.ar      1 ATP         0.2226
     32 HOA2        2.5619   -1.0633   -5.1981 H         1 ATP         0.2010
     33 H5'1        1.2163   -0.0770   -2.0471 H         1 ATP        -0.0393
     34 H5'2        2.4655   -1.3443   -2.1563 H         1 ATP        -0.0393
     35 H4'         3.8040   -0.1399   -0.4044 H         1 ATP        -0.0393
     36 H3'         1.6768   -1.7637    0.2732 H         1 ATP        -0.0393
     37 HO3'        2.2231   -1.2979    2.3952 H         1 ATP         0.2010
     38 H2'         0.0002   -0.0084   -0.0014 H         1 ATP        -0.0393
     39 HO2'       -0.1554   -0.9852    2.0577 H         1 ATP         0.2010
     40 H1'         1.7718    1.9211    1.6015 H         1 ATP        -0.0393
     41 H8          1.3565    3.3309   -1.8916 H         1 ATP         0.0000
     42 HN61       -2.4952    5.6785   -1.4487 H         1 ATP         0.2048
     43 HN62       -3.8637    5.8828   -0.3819 H         1 ATP         0.2048
     44 H2         -2.9911    2.8734    3.1000 H         1 ATP        -0.1292
     45 H45        -3.9253    4.5332    1.6302 H         1 ATP         0.2048
@<TRIPOS>BOND
     1    1    2 2
     2    1    3 1
     3    1    4 1
     4    1    8 1
     5    5    6 2
     6    5    7 1
     7    5    8 1
     8    5   12 1
     9    9   10 2
    10    9   11 1
    11    9   12 1
    12    9   13 1
    13   11   32 1
    14   13   14 1
    15   14   15 1
    16   14   33 1
    17   14   34 1
    18   15   16 1
    19   15   17 1
    20   15   35 1
    21   16   21 1
    22   17   18 1
    23   17   19 1
    24   17   36 1
    25   18   37 1
    26   19   20 1
    27   19   21 1
    28   19   38 1
    29   20   39 1
    30   21   22 1
    31   21   40 1
    32   22   23 ar
    33   22   31 ar
    34   23   24 ar
    35   23   41 1
    36   24   25 ar
    37   25   26 ar
    38   25   31 ar
    39   26   27 1
    40   26   28 ar
    41   27   42 1
    42   27   43 1
    43   28   29 ar
    44   28   45 1
    45   29   30 ar
    46   29   44 1
    47   30   31 ar
@<TRIPOS>SUBSTRUCTURE
     1 ATP         1 GROUP 0 A     ****
@<TRIPOS>MOLECULE
[[[5-(6-amino-1,8-dihydropurine-6,8-diylium-7-id-9-yl)-3,4-dihydroxy-tetrahydrofuran-2-yl]methoxy-hydroxy-phosphoryl]oxy-oxido-phosphoryl] phosphate
   45    47     1     0     0
SMALL
USER_CHARGES

@<TRIPOS>ATOM
      1 PG         -0.9058    0.1814   -4.8654 P.3       1 ATP        -1.1921
      2 O1G        -1.6730   -0.7904   -5.7558 O.co2     1 ATP         0.3195
      3 O2G        -1.4905    0.3501   -3.4673 O.co2     1 ATP         0.3195
      4 O3G        -0.5360    1.4945   -5.5477 O.co2     1 ATP         0.3195
      5 PB          1.7136   -1.0364   -5.6526 P.3       1 ATP        -1.1062
      6 O1B         1.1757   -2.1653   -6.5035 O.co2     1 ATP         0.3195
      7 O2B         2.3233    0.1935   -6.2884 O.co2     1 ATP         0.3195
      8 O3B         0.5485   -0.5526   -4.6160 O.3       1 ATP         0.4672
      9 PA          4.0065   -0.9377   -3.8013 P.3       1 ATP        -0.9715
     10 O1A         5.0546   -0.3584   -4.7068 O.2       1 ATP         0.2707
     11 O2A         4.5457   -2.0937   -2.8061 O.3       1 ATP         0.0326
     12 O3A         2.7807   -1.6499   -4.5812 O.3       1 ATP         0.4672
     13 O5'         3.2903    0.1346   -2.8241 O.3       1 ATP         0.1618
     14 C5'         2.2816   -0.2918   -1.9206 C.3       1 ATP         0.1504
     15 C4'         2.7248    0.0226   -0.4980 C.3       1 ATP         0.1111
     16 O4'         2.4697    1.4219   -0.2462 O.3       1 ATP        -0.1436
     17 C3'         1.9404   -0.7419    0.5596 C.3       1 ATP         0.1111
     18 O3'         2.7418   -0.8086    1.7389 O.3       1 ATP        -0.2728
     19 C2'         0.7477    0.1630    0.7858 C.3       1 ATP         0.1111
     20 O2'         0.1373   -0.0577    2.0407 O.3       1 ATP        -0.2728
     21 C1'         1.3733    1.5427    0.6747 C.3       1 ATP         0.2693
     22 N9          0.4520    2.5240    0.1767 N.pl3     1 ATP        -0.3222
     23 C8          0.1798    2.8712   -1.2933 C.ar      1 ATP         0.1640
     24 N7         -0.7494    3.8400   -1.3610 N.2       1 ATP        -0.1640
     25 C5         -1.0173    4.0603   -0.0358 C.ar      1 ATP         0.0820
     26 C6         -2.0105    5.0717    0.4241 C.ar      1 ATP         0.1640
     27 N6         -2.6723    5.7982   -0.4628 N.pl3     1 ATP        -0.4916
     28 N1         -2.1445    5.1522    1.7502 N.pl3     1 ATP        -0.4390
     29 C2         -1.3755    4.3143    2.6427 C.ar      1 ATP         0.5691
     30 N3         -0.5075    3.4292    2.2616 N.ar      1 ATP        -0.4283
     31 C4         -0.3667    3.3425    0.9070 C.ar      1 ATP         0.2226
     32 HOA2        5.2562   -1.8753   -2.1661 H         1 ATP         0.2010
     33 H5'1        1.3514    0.2330   -2.1577 H         1 ATP        -0.0393
     34 H5'2        2.1280   -1.3678   -2.0460 H         1 ATP        -0.0393
     35 H4'         3.8040   -0.1399   -0.4044 H         1 ATP        -0.0393
     36 H3'         1.6768   -1.7637    0.2732 H         1 ATP        -0.0393
     37 HO3'        3.5553   -1.2733    1.4913 H         1 ATP         0.2010
     38 H2'         0.0002   -0.0084   -0.0014 H         1 ATP        -0.0393
     39 HO2'       -0.1554   -0.9852    2.0577 H         1 ATP         0.2010
     40 H1'         1.7718    1.9211    1.6015 H         1 ATP        -0.0393
     41 H8          0.6089    2.4651   -2.2147 H         1 ATP         0.0000
     42 HN61       -2.5055    5.6680   -1.4503 H         1 ATP         0.2048
     43 HN62       -3.3462    6.4841   -0.1542 H         1 ATP         0.2048
     44 H2         -1.5932    4.4937    3.7066 H         1 ATP        -0.1292
     45 H45        -2.8098    5.8270    2.1160 H         1 ATP         0.2048
@<TRIPOS>BOND
     1    1    2 2
     2    1    3 1
     3    1    4 1
     4    1    8 1
     5    5    6 2
     6    5    7 1
     7    5    8 1
     8    5   12 1
     9    9   10 2
    10    9   11 1
    11    9   12 1
    12    9   13 1
    13   11   32 1
    14   13   14 1
    15   14   15 1
    16   14   33 1
    17   14   34 1
    18   15   16 1
    19   15   17 1
    20   15   35 1
    21   16   21 1
    22   17   18 1
    23   17   19 1
    24   17   36 1
    25   18   37 1
    26   19   20 1
    27   19   21 1
    28   19   38 1
    29   20   39 1
    30   21   22 1
    31   21   40 1
    32   22   23 ar
    33   22   31 ar
    34   23   24 ar
    35   23   41 1
    36   24   25 ar
    37   25   26 ar
    38   25   31 ar
    39   26   27 1
    40   26   28 ar
    41   27   42 1
    42   27   43 1
    43   28   29 ar
    44   28   45 1
    45   29   30 ar
    46   29   44 1
    47   30   31 ar
@<TRIPOS>SUBSTRUCTURE
     1 ATP         1 GROUP 0 A     ****
@<TRIPOS>MOLECULE
[[[5-(6-amino-1,8-dihydropurine-6,8-diylium-7-id-9-yl)-3,4-dihydroxy-tetrahydrofuran-2-yl]methoxy-hydroxy-phosphoryl]oxy-oxido-phosphoryl] phosphate
   45    47     1     0     0
SMALL
USER_CHARGES

@<TRIPOS>ATOM
      1 PG          6.8432    1.1984   -2.0632 P.3       1 ATP        -1.1921
      2 O1G         6.5834    1.2685   -0.5621 O.co2     1 ATP         0.3195
      3 O2G         8.1328    1.8773   -2.5115 O.co2     1 ATP         0.3195
      4 O3G         5.6301    1.5375   -2.9234 O.co2     1 ATP         0.3195
      5 PB          6.1531   -1.7143   -2.1299 P.3       1 ATP        -1.1062
      6 O1B         6.8366   -2.9228   -2.7298 O.co2     1 ATP         0.3195
      7 O2B         5.6903   -1.7184   -0.6896 O.co2     1 ATP         0.3195
      8 O3B         7.0977   -0.4025   -2.3603 O.3       1 ATP         0.4672
      9 PA          3.5157   -2.0910   -3.3935 P.3       1 ATP        -0.9715
     10 O1A         3.6869   -3.5720   -3.5704 O.2       1 ATP         0.2707
     11 O2A         2.9260   -1.3252   -4.6908 O.3       1 ATP         0.0326
     12 O3A         4.8919   -1.3002   -3.0790 O.3       1 ATP         0.4672
     13 O5'         2.5245   -1.6648   -2.1878 O.3       1 ATP         0.1618
     14 C5'         2.2816   -0.2918   -1.9206 C.3       1 ATP         0.1504
     15 C4'         2.7248    0.0226   -0.4980 C.3       1 ATP         0.1111
     16 O4'         2.4697    1.4219   -0.2462 O.3       1 ATP        -0.1436
     17 C3'         1.9404   -0.7419    0.5596 C.3       1 ATP         0.1111
     18 O3'         2.7418   -0.8086    1.7389 O.3       1 ATP        -0.2728
     19 C2'         0.7477    0.1630    0.7858 C.3       1 ATP         0.1111
     20 O2'         0.1373   -0.0577    2.0407 O.3       1 ATP        -0.2728
     21 C1'         1.3733    1.5427    0.6747 C.3       1 ATP         0.2693
     22 N9          0.4520    2.5240    0.1767 N.pl3     1 ATP        -0.3222
     23 C8          0.1798    2.8712   -1.2933 C.ar      1 ATP         0.1640
     24 N7         -0.7494    3.8400   -1.3610 N.2       1 ATP        -0.1640
     25 C5         -1.0173    4.0603   -0.0358 C.ar      1 ATP         0.0820
     26 C6         -2.0105    5.0717    0.4241 C.ar      1 ATP         0.1640
     27 N6         -2.6723    5.7982   -0.4628 N.pl3     1 ATP        -0.4916
     28 N1         -2.1445    5.1522    1.7502 N.pl3     1 ATP        -0.4390
     29 C2         -1.3755    4.3143    2.6427 C.ar      1 ATP         0.5691
     30 N3         -0.5075    3.4292    2.2616 N.ar      1 ATP        -0.4283
     31 C4         -0.3667    3.3425    0.9070 C.ar      1 ATP         0.2226
     32 HOA2        3.4272   -1.3635   -5.5331 H         1 ATP         0.2010
     33 H5'1        2.8432    0.3119   -2.6398 H         1 ATP        -0.0393
     34 H5'2        1.2128   -0.0927   -2.0428 H         1 ATP        -0.0393
     35 H4'         3.8040   -0.1399   -0.4044 H         1 ATP        -0.0393
     36 H3'         1.6768   -1.7637    0.2732 H         1 ATP        -0.0393
     37 HO3'        2.2231   -1.2979    2.3952 H         1 ATP         0.2010
     38 H2'         0.0002   -0.0084   -0.0014 H         1 ATP        -0.0393
     39 HO2'       -0.6132    0.5577    2.1063 H         1 ATP         0.2010
     40 H1'         1.7718    1.9211    1.6015 H         1 ATP        -0.0393
     41 H8          0.6089    2.4651   -2.2147 H         1 ATP         0.0000
     42 HN61       -2.5055    5.6680   -1.4503 H         1 ATP         0.2048
     43 HN62       -3.3462    6.4841   -0.1542 H         1 ATP         0.2048
     44 H2         -1.5932    4.4937    3.7066 H         1 ATP        -0.1292
     45 H45        -2.8098    5.8270    2.1160 H         1 ATP         0.2048
@<TRIPOS>BOND
     1    1    2 2
     2    1    3 1
     3    1    4 1
     4    1    8 1
     5    5    6 2
     6    5    7 1
     7    5    8 1
     8    5   12 1
     9    9   10 2
    10    9   11 1
    11    9   12 1
    12    9   13 1
    13   11   32 1
    14   13   14 1
    15   14   15 1
    16   14   33 1
    17   14   34 1
    18   15   16 1
    19   15   17 1
    20   15   35 1
    21   16   21 1
    22   17   18 1
    23   17   19 1
    24   17   36 1
    25   18   37 1
    26   19   20 1
    27   19   21 1
    28   19   38 1
    29   20   39 1
    30   21   22 1
    31   21   40 1
    32   22   23 ar
    33   22   31 ar
    34   23   24 ar
    35   23   41 1
    36   24   25 ar
    37   25   26 ar
    38   25   31 ar
    39   26   27 1
    40   26   28 ar
    41   27   42 1
    42   27   43 1
    43   28   29 ar
    44   28   45 1
    45   29   30 ar
    46   29   44 1
    47   30   31 ar
@<TRIPOS>SUBSTRUCTURE
     1 ATP         1 GROUP 0 A     ****
@<TRIPOS>MOLECULE
[[[5-(6-amino-1,8-dihydropurine-6,8-diylium-7-id-9-yl)-3,4-dihydroxy-tetrahydrofuran-2-yl]methoxy-hydroxy-phosphoryl]oxy-oxido-phosphoryl] phosphate
   45    47     1     0     0
SMALL
USER_CHARGES

@<TRIPOS>ATOM
      1 PG         -1.3385   -0.0926   -7.4676 P.3       1 ATP        -1.1921
      2 O1G        -1.0706    1.2439   -8.1514 O.co2     1 ATP         0.3195
      3 O2G        -1.3535   -1.2907   -8.4107 O.co2     1 ATP         0.3195
      4 O3G        -2.4983   -0.0659   -6.4773 O.co2     1 ATP         0.3195
      5 PB          0.6165    0.5364   -5.2890 P.3       1 ATP        -1.1062
      6 O1B         1.1286    1.8502   -5.8361 O.co2     1 ATP         0.3195
      7 O2B        -0.3565    0.5033   -4.1310 O.co2     1 ATP         0.3195
      8 O3B        -0.0165   -0.3373   -6.5146 O.3       1 ATP         0.4672
      9 PA          3.3423   -0.0257   -4.3151 P.3       1 ATP        -0.9715
     10 O1A         4.1311    0.9234   -5.1701 O.2       1 ATP         0.2707
     11 O2A         4.0498   -1.4615   -4.0799 O.3       1 ATP         0.0326
     12 O3A         1.8928   -0.4118   -4.9217 O.3       1 ATP         0.4672
     13 O5'         3.0213    0.5153   -2.8245 O.3       1 ATP         0.1618
     14 C5'         2.2816   -0.2918   -1.9206 C.3       1 ATP         0.1504
     15 C4'         2.7248    0.0226   -0.4980 C.3       1 ATP         0.1111
     16 O4'         2.4697    1.4219   -0.2462 O.3       1 ATP        -0.1436
     17 C3'         1.9404   -0.7419    0.5596 C.3       1 ATP         0.1111
     18 O3'         2.7418   -0.8086    1.7389 O.3       1 ATP        -0.2728
     19 C2'         0.7477    0.1630    0.7858 C.3       1 ATP         0.1111
     20 O2'         0.1373   -0.0577    2.0407 O.3       1 ATP        -0.2728
     21 C1'         1.3733    1.5427    0.6747 C.3       1 ATP         0.2693
     22 N9          0.4520    2.5240    0.1767 N.pl3     1 ATP        -0.3222
     23 C8          0.1798    2.8712   -1.2933 C.ar      1 ATP         0.1640
     24 N7         -0.7494    3.8400   -1.3610 N.2       1 ATP        -0.1640
     25 C5         -1.0173    4.0603   -0.0358 C.ar      1 ATP         0.0820
     26 C6         -2.0105    5.0717    0.4241 C.ar      1 ATP         0.1640
     27 N6         -2.6723    5.7982   -0.4628 N.pl3     1 ATP        -0.4916
     28 N1         -2.1445    5.1522    1.7502 N.pl3     1 ATP        -0.4390
     29 C2         -1.3755    4.3143    2.6427 C.ar      1 ATP         0.5691
     30 N3         -0.5075    3.4292    2.2616 N.ar      1 ATP        -0.4283
     31 C4         -0.3667    3.3425    0.9070 C.ar      1 ATP         0.2226
     32 HOA2        4.9282   -1.4920   -3.6444 H         1 ATP         0.2010
     33 H5'1        1.2163   -0.0770   -2.0471 H         1 ATP        -0.0393
     34 H5'2        2.4655   -1.3443   -2.1563 H         1 ATP        -0.0393
     35 H4'         3.8040   -0.1399   -0.4044 H         1 ATP        -0.0393
     36 H3'         1.6768   -1.7637    0.2732 H         1 ATP        -0.0393
     37 HO3'        3.5553   -1.2733    1.4913 H         1 ATP         0.2010
     38 H2'         0.0002   -0.0084   -0.0014 H         1 ATP        -0.0393
     39 HO2'       -0.1554   -0.9852    2.0577 H         1 ATP         0.2010
     40 H1'         1.7718    1.9211    1.6015 H         1 ATP        -0.0393
     41 H8          0.6089    2.4651   -2.2147 H         1 ATP         0.0000
     42 HN61       -2.5055    5.6680   -1.4503 H         1 ATP         0.2048
     43 HN62       -3.3462    6.4841   -0.1542 H         1 ATP         0.2048
     44 H2         -1.5932    4.4937    3.7066 H         1 ATP        -0.1292
     45 H45        -2.8098    5.8270    2.1160 H         1 ATP         0.2048
@<TRIPOS>BOND
     1    1    2 2
     2    1    3 1
     3    1    4 1
     4    1    8 1
     5    5    6 2
     6    5    7 1
     7    5    8 1
     8    5   12 1
     9    9   10 2
    10    9   11 1
    11    9   12 1
    12    9   13 1
    13   11   32 1
    14   13   14 1
    15   14   15 1
    16   14   33 1
    17   14   34 1
    18   15   16 1
    19   15   17 1
    20   15   35 1
    21   16   21 1
    22   17   18 1
    23   17   19 1
    24   17   36 1
    25   18   37 1
    26   19   20 1
    27   19   21 1
    28   19   38 1
    29   20   39 1
    30   21   22 1
    31   21   40 1
    32   22   23 ar
    33   22   31 ar
    34   23   24 ar
    35   23   41 1
    36   24   25 ar
    37   25   26 ar
    38   25   31 ar
    39   26   27 1
    40   26   28 ar
    41   27   42 1
    42   27   43 1
    43   28   29 ar
    44   28   45 1
    45   29   30 ar
    46   29   44 1
    47   30   31 ar
@<TRIPOS>SUBSTRUCTURE
     1 ATP         1 GROUP 0 A     ****
@<TRIPOS>MOLECULE
[[[5-(6-amino-1,8-dihydropurine-6,8-diylium-7-id-9-yl)-3,4-dihydroxy-tetrahydrofuran-2-yl]methoxy-hydroxy-phosphoryl]oxy-oxido-phosphoryl] phosphate
   45    47     1     0     0
SMALL
USER_CHARGES

@<TRIPOS>ATOM
      1 PG          6.3602   -0.0127   -6.7138 P.3       1 ATP        -1.1921
      2 O1G         6.9731   -1.2905   -7.2770 O.co2     1 ATP         0.3195
      3 O2G         5.2144    0.5552   -7.5442 O.co2     1 ATP         0.3195
      4 O3G         7.3835    1.0284   -6.2714 O.co2     1 ATP         0.3195
      5 PB          6.2618   -1.1768   -3.9571 P.3       1 ATP        -1.1062
      6 O1B         6.7484   -2.5681   -4.2967 O.co2     1 ATP         0.3195
      7 O2B         7.1759   -0.1765   -3.2845 O.co2     1 ATP         0.3195
      8 O3B         5.6498   -0.4860   -5.3041 O.3       1 ATP         0.4672
      9 PA          3.5157   -2.0910   -3.3935 P.3       1 ATP        -0.9715
     10 O1A         3.6869   -3.5720   -3.5704 O.2       1 ATP         0.2707
     11 O2A         2.9260   -1.3252   -4.6908 O.3       1 ATP         0.0326
     12 O3A         4.8919   -1.3002   -3.0790 O.3       1 ATP         0.4672
     13 O5'         2.5245   -1.6648   -2.1878 O.3       1 ATP         0.1618
     14 C5'         2.2816   -0.2918   -1.9206 C.3       1 ATP         0.1504
     15 C4'         2.7248    0.0226   -0.4980 C.3       1 ATP         0.1111
     16 O4'         2.4697    1.4219   -0.2462 O.3       1 ATP        -0.1436
     17 C3'         1.9404   -0.7419    0.5596 C.3       1 ATP         0.1111
     18 O3'         2.7418   -0.8086    1.7389 O.3       1 ATP        -0.2728
     19 C2'         0.7477    0.1630    0.7858 C.3       1 ATP         0.1111
     20 O2'         0.1373   -0.0577    2.0407 O.3       1 ATP        -0.2728
     21 C1'         1.3733    1.5427    0.6747 C.3       1 ATP         0.2693
     22 N9          0.4520    2.5240    0.1767 N.pl3     1 ATP        -0.3222
     23 C8          0.1798    2.8712   -1.2933 C.ar      1 ATP         0.1640
     24 N7         -0.7494    3.8400   -1.3610 N.2       1 ATP        -0.1640
     25 C5         -1.0173    4.0603   -0.0358 C.ar      1 ATP         0.0820
     26 C6         -2.0105    5.0717    0.4241 C.ar      1 ATP         0.1640
     27 N6         -2.6723    5.7982   -0.4628 N.pl3     1 ATP        -0.4916
     28 N1         -2.1445    5.1522    1.7502 N.pl3     1 ATP        -0.4390
     29 C2         -1.3755    4.3143    2.6427 C.ar      1 ATP         0.5691
     30 N3         -0.5075    3.4292    2.2616 N.ar      1 ATP        -0.4283
     31 C4         -0.3667    3.3425    0.9070 C.ar      1 ATP         0.2226
     32 HOA2        3.4272   -1.3635   -5.5331 H         1 ATP         0.2010
     33 H5'1        2.8432    0.3119   -2.6398 H         1 ATP        -0.0393
     34 H5'2        1.2128   -0.0927   -2.0428 H         1 ATP        -0.0393
     35 H4'         3.8040   -0.1399   -0.4044 H         1 ATP        -0.0393
     36 H3'         1.6768   -1.7637    0.2732 H         1 ATP        -0.0393
     37 HO3'        2.2231   -1.2979    2.3952 H         1 ATP         0.2010
     38 H2'         0.0002   -0.0084   -0.0014 H         1 ATP        -0.0393
     39 HO2'       -0.6132    0.5577    2.1063 H         1 ATP         0.2010
     40 H1'         1.7718    1.9211    1.6015 H         1 ATP        -0.0393
     41 H8          0.6089    2.4651   -2.2147 H         1 ATP         0.0000
     42 HN61       -2.5055    5.6680   -1.4503 H         1 ATP         0.2048
     43 HN62       -3.3462    6.4841   -0.1542 H         1 ATP         0.2048
     44 H2         -1.5932    4.4937    3.7066 H         1 ATP        -0.1292
     45 H45        -2.8098    5.8270    2.1160 H         1 ATP         0.2048
@<TRIPOS>BOND
     1    1    2 2
     2    1    3 1
     3    1    4 1
     4    1    8 1
     5    5    6 2
     6    5    7 1
     7    5    8 1
     8    5   12 1
     9    9   10 2
    10    9   11 1
    11    9   12 1
    12    9   13 1
    13   11   32 1
    14   13   14 1
    15   14   15 1
    16   14   33 1
    17   14   34 1
    18   15   16 1
    19   15   17 1
    20   15   35 1
    21   16   21 1
    22   17   18 1
    23   17   19 1
    24   17   36 1
    25   18   37 1
    26   19   20 1
    27   19   21 1
    28   19   38 1
    29   20   39 1
    30   21   22 1
    31   21   40 1
    32   22   23 ar
    33   22   31 ar
    34   23   24 ar
    35   23   41 1
    36   24   25 ar
    37   25   26 ar
    38   25   31 ar
    39   26   27 1
    40   26   28 ar
    41   27   42 1
    42   27   43 1
    43   28   29 ar
    44   28   45 1
    45   29   30 ar
    46   29   44 1
    47   30   31 ar
@<TRIPOS>SUBSTRUCTURE
     1 ATP         1 GROUP 0 A     ****
@<TRIPOS>MOLECULE
[[[5-(6-amino-1,8-dihydropurine-6,8-diylium-7-id-9-yl)-3,4-dihydroxy-tetrahydrofuran-2-yl]methoxy-hydroxy-phosphoryl]oxy-oxido-phosphoryl] phosphate
   45    47     1     0     0
SMALL
USER_CHARGES

@<TRIPOS>ATOM
      1 PG          2.8746    0.0932   -8.6640 P.3       1 ATP        -1.1921
      2 O1G         1.9500    1.3034   -8.5863 O.co2     1 ATP         0.3195
      3 O2G         4.2955    0.4142   -9.1144 O.co2     1 ATP         0.3195
      4 O3G         2.2605   -1.1181   -9.3585 O.co2     1 ATP         0.3195
      5 PB          1.9464   -0.8909   -5.9930 P.3       1 ATP        -1.1062
      6 O1B         1.0458    0.2717   -5.6396 O.co2     1 ATP         0.3195
      7 O2B         1.3674   -2.2098   -6.4556 O.co2     1 ATP         0.3195
      8 O3B         3.0408   -0.3963   -7.0992 O.3       1 ATP         0.4672
      9 PA          3.9517   -0.1778   -3.9522 P.3       1 ATP        -0.9715
     10 O1A         4.6801    0.7864   -4.8431 O.2       1 ATP         0.2707
     11 O2A         4.9129   -1.1802   -3.1224 O.3       1 ATP         0.0326
     12 O3A         2.9506   -1.1764   -4.7388 O.3       1 ATP         0.4672
     13 O5'         3.0213    0.5153   -2.8245 O.3       1 ATP         0.1618
     14 C5'         2.2816   -0.2918   -1.9206 C.3       1 ATP         0.1504
     15 C4'         2.7248    0.0226   -0.4980 C.3       1 ATP         0.1111
     16 O4'         2.4697    1.4219   -0.2462 O.3       1 ATP        -0.1436
     17 C3'         1.9404   -0.7419    0.5596 C.3       1 ATP         0.1111
     18 O3'         2.7418   -0.8086    1.7389 O.3       1 ATP        -0.2728
     19 C2'         0.7477    0.1630    0.7858 C.3       1 ATP         0.1111
     20 O2'         0.1373   -0.0577    2.0407 O.3       1 ATP        -0.2728
     21 C1'         1.3733    1.5427    0.6747 C.3       1 ATP         0.2693
     22 N9          0.4520    2.5240    0.1767 N.pl3     1 ATP        -0.3222
     23 C8          0.1798    2.8712   -1.2933 C.ar      1 ATP         0.1640
     24 N7         -0.7494    3.8400   -1.3610 N.2       1 ATP        -0.1640
     25 C5         -1.0173    4.0603   -0.0358 C.ar      1 ATP         0.0820
     26 C6         -2.0105    5.0717    0.4241 C.ar      1 ATP         0.1640
     27 N6         -2.6723    5.7982   -0.4628 N.pl3     1 ATP        -0.4916
     28 N1         -2.1445    5.1522    1.7502 N.pl3     1 ATP        -0.4390
     29 C2         -1.3755    4.3143    2.6427 C.ar      1 ATP         0.5691
     30 N3         -0.5075    3.4292    2.2616 N.ar      1 ATP        -0.4283
     31 C4         -0.3667    3.3425    0.9070 C.ar      1 ATP         0.2226
     32 HOA2        5.5708   -0.8011   -2.5015 H         1 ATP         0.2010
     33 H5'1        1.2163   -0.0770   -2.0471 H         1 ATP        -0.0393
     34 H5'2        2.4655   -1.3443   -2.1563 H         1 ATP        -0.0393
     35 H4'         3.8040   -0.1399   -0.4044 H         1 ATP        -0.0393
     36 H3'         1.6768   -1.7637    0.2732 H         1 ATP        -0.0393
     37 HO3'        3.5553   -1.2733    1.4913 H         1 ATP         0.2010
     38 H2'         0.0002   -0.0084   -0.0014 H         1 ATP        -0.0393
     39 HO2'       -0.1554   -0.9852    2.0577 H         1 ATP         0.2010
     40 H1'         1.7718    1.9211    1.6015 H         1 ATP        -0.0393
     41 H8          0.6089    2.4651   -2.2147 H         1 ATP         0.0000
     42 HN61       -2.5055    5.6680   -1.4503 H         1 ATP         0.2048
     43 HN62       -3.3462    6.4841   -0.1542 H         1 ATP         0.2048
     44 H2         -1.5932    4.4937    3.7066 H         1 ATP        -0.1292
     45 H45        -2.8098    5.8270    2.1160 H         1 ATP         0.2048
@<TRIPOS>BOND
     1    1    2 2
     2    1    3 1
     3    1    4 1
     4    1    8 1
     5    5    6 2
     6    5    7 1
     7    5    8 1
     8    5   12 1
     9    9   10 2
    10    9   11 1
    11    9   12 1
    12    9   13 1
    13   11   32 1
    14   13   14 1
    15   14   15 1
    16   14   33 1
    17   14   34 1
    18   15   16 1
    19   15   17 1
    20   15   35 1
    21   16   21 1
    22   17   18 1
    23   17   19 1
    24   17   36 1
    25   18   37 1
    26   19   20 1
    27   19   21 1
    28   19   38 1
    29   20   39 1
    30   21   22 1
    31   21   40 1
    32   22   23 ar
    33   22   31 ar
    34   23   24 ar
    35   23   41 1
    36   24   25 ar
    37   25   26 ar
    38   25   31 ar
    39   26   27 1
    40   26   28 ar
    41   27   42 1
    42   27   43 1
    43   28   29 ar
    44   28   45 1
    45   29   30 ar
    46   29   44 1
    47   30   31 ar
@<TRIPOS>SUBSTRUCTURE
     1 ATP         1 GROUP 0 A     ****
@<TRIPOS>MOLECULE
[[[5-(6-amino-1,8-dihydropurine-6,8-diylium-7-id-9-yl)-3,4-dihydroxy-tetrahydrofuran-2-yl]methoxy-hydroxy-phosphoryl]oxy-oxido-phosphoryl] phosphate
   45    47     1     0     0
SMALL
USER_CHARGES

@<TRIPOS>ATOM
      1 PG          5.8918   -3.4196    0.3171 P.3       1 ATP        -1.1921
      2 O1G         6.5234   -2.3392    1.1886 O.co2     1 ATP         0.3195
      3 O2G         4.6325   -4.0466    0.9052 O.co2     1 ATP         0.3195
      4 O3G         6.8869   -4.4307   -0.2432 O.co2     1 ATP         0.3195
      5 PB          6.1531   -1.7143   -2.1299 P.3       1 ATP        -1.1062
      6 O1B         6.6897   -0.4671   -1.4633 O.co2     1 ATP         0.3195
      7 O2B         7.0662   -2.6296   -2.9155 O.co2     1 ATP         0.3195
      8 O3B         5.3625   -2.6112   -1.0179 O.3       1 ATP         0.4672
      9 PA          3.5157   -2.0910   -3.3935 P.3       1 ATP        -0.9715
     10 O1A         3.6869   -3.5720   -3.5704 O.2       1 ATP         0.2707
     11 O2A         2.9260   -1.3252   -4.6908 O.3       1 ATP         0.0326
     12 O3A         4.8919   -1.3002   -3.0790 O.3       1 ATP         0.4672
     13 O5'         2.5245   -1.6648   -2.1878 O.3       1 ATP         0.1618
     14 C5'         2.2816   -0.2918   -1.9206 C.3       1 ATP         0.1504
     15 C4'         2.7248    0.0226   -0.4980 C.3       1 ATP         0.1111
     16 O4'         2.4697    1.4219   -0.2462 O.3       1 ATP        -0.1436
     17 C3'         1.9404   -0.7419    0.5596 C.3       1 ATP         0.1111
     18 O3'         2.7418   -0.8086    1.7389 O.3       1 ATP        -0.2728
     19 C2'         0.7477    0.1630    0.7858 C.3       1 ATP         0.1111
     20 O2'         0.1373   -0.0577    2.0407 O.3       1 ATP        -0.2728
     21 C1'         1.3733    1.5427    0.6747 C.3       1 ATP         0.2693
     22 N9          0.4520    2.5240    0.1767 N.pl3     1 ATP        -0.3222
     23 C8          0.1798    2.8712   -1.2933 C.ar      1 ATP         0.1640
     24 N7         -0.7494    3.8400   -1.3610 N.2       1 ATP        -0.1640
     25 C5         -1.0173    4.0603   -0.0358 C.ar      1 ATP         0.0820
     26 C6         -2.0105    5.0717    0.4241 C.ar      1 ATP         0.1640
     27 N6         -2.6723    5.7982   -0.4628 N.pl3     1 ATP        -0.4916
     28 N1         -2.1445    5.1522    1.7502 N.pl3     1 ATP        -0.4390
     29 C2         -1.3755    4.3143    2.6427 C.ar      1 ATP         0.5691
     30 N3         -0.5075    3.4292    2.2616 N.ar      1 ATP        -0.4283
     31 C4         -0.3667    3.3425    0.9070 C.ar      1 ATP         0.2226
     32 HOA2        2.0440   -1.5831   -5.0338 H         1 ATP         0.2010
     33 H5'1        2.8432    0.3119   -2.6398 H         1 ATP        -0.0393
     34 H5'2        1.2128   -0.0927   -2.0428 H         1 ATP        -0.0393
     35 H4'         3.8040   -0.1399   -0.4044 H         1 ATP        -0.0393
     36 H3'         1.6768   -1.7637    0.2732 H         1 ATP        -0.0393
     37 HO3'        2.2231   -1.2979    2.3952 H         1 ATP         0.2010
     38 H2'         0.0002   -0.0084   -0.0014 H         1 ATP        -0.0393
     39 HO2'       -0.6132    0.5577    2.1063 H         1 ATP         0.2010
     40 H1'         1.7718    1.9211    1.6015 H         1 ATP        -0.0393
     41 H8          0.6089    2.4651   -2.2147 H         1 ATP         0.0000
     42 HN61       -3.3458    6.4845   -0.1543 H         1 ATP         0.2048
     43 HN62       -2.5050    5.6683   -1.4502 H         1 ATP         0.2048
     44 H2         -1.5932    4.4937    3.7066 H         1 ATP        -0.1292
     45 H45        -2.8098    5.8270    2.1160 H         1 ATP         0.2048
@<TRIPOS>BOND
     1    1    2 2
     2    1    3 1
     3    1    4 1
     4    1    8 1
     5    5    6 2
     6    5    7 1
     7    5    8 1
     8    5   12 1
     9    9   10 2
    10    9   11 1
    11    9   12 1
    12    9   13 1
    13   11   32 1
    14   13   14 1
    15   14   15 1
    16   14   33 1
    17   14   34 1
    18   15   16 1
    19   15   17 1
    20   15   35 1
    21   16   21 1
    22   17   18 1
    23   17   19 1
    24   17   36 1
    25   18   37 1
    26   19   20 1
    27   19   21 1
    28   19   38 1
    29   20   39 1
    30   21   22 1
    31   21   40 1
    32   22   23 ar
    33   22   31 ar
    34   23   24 ar
    35   23   41 1
    36   24   25 ar
    37   25   26 ar
    38   25   31 ar
    39   26   27 1
    40   26   28 ar
    41   27   42 1
    42   27   43 1
    43   28   29 ar
    44   28   45 1
    45   29   30 ar
    46   29   44 1
    47   30   31 ar
@<TRIPOS>SUBSTRUCTURE
     1 ATP         1 GROUP 0 A     ****
@<TRIPOS>MOLECULE
[[[5-(6-amino-1,8-dihydropurine-6,8-diylium-7-id-9-yl)-3,4-dihydroxy-tetrahydrofuran-2-yl]methoxy-hydroxy-phosphoryl]oxy-oxido-phosphoryl] phosphate
   45    47     1     0     0
SMALL
USER_CHARGES

@<TRIPOS>ATOM
      1 PG         -1.3620    0.6173   -5.4332 P.3       1 ATP        -1.1921
      2 O1G        -2.3951    1.7343   -5.5354 O.co2     1 ATP         0.3195
      3 O2G        -1.5244   -0.4877   -6.4713 O.co2     1 ATP         0.3195
      4 O3G        -1.1311    0.1084   -4.0139 O.co2     1 ATP         0.3195
      5 PB          0.8690    2.5942   -5.1529 P.3       1 ATP        -1.1062
      6 O1B         1.7772    3.2102   -6.1938 O.co2     1 ATP         0.3195
      7 O2B        -0.1253    3.4413   -4.3899 O.co2     1 ATP         0.3195
      8 O3B         0.0651    1.3422   -5.8254 O.3       1 ATP         0.4672
      9 PA          2.8890    0.6159   -4.3157 P.3       1 ATP        -0.9715
     10 O1A         4.0478    1.0413   -5.1702 O.2       1 ATP         0.2707
     11 O2A         2.0278   -0.6137   -4.9188 O.3       1 ATP         0.0326
     12 O3A         1.7834    1.7734   -4.0790 O.3       1 ATP         0.4672
     13 O5'         3.2903    0.1346   -2.8241 O.3       1 ATP         0.1618
     14 C5'         2.2816   -0.2918   -1.9206 C.3       1 ATP         0.1504
     15 C4'         2.7248    0.0226   -0.4980 C.3       1 ATP         0.1111
     16 O4'         2.4697    1.4219   -0.2462 O.3       1 ATP        -0.1436
     17 C3'         1.9404   -0.7419    0.5596 C.3       1 ATP         0.1111
     18 O3'         2.7418   -0.8086    1.7389 O.3       1 ATP        -0.2728
     19 C2'         0.7477    0.1630    0.7858 C.3       1 ATP         0.1111
     20 O2'         0.1373   -0.0577    2.0407 O.3       1 ATP        -0.2728
     21 C1'         1.3733    1.5427    0.6747 C.3       1 ATP         0.2693
     22 N9          0.4520    2.5240    0.1767 N.pl3     1 ATP        -0.3222
     23 C8          0.5793    3.3338   -1.1209 C.ar      1 ATP         0.1640
     24 N7         -0.4807    4.1508   -1.2458 N.2       1 ATP        -0.1640
     25 C5         -1.1921    3.8572   -0.1126 C.ar      1 ATP         0.0820
     26 C6         -2.4855    4.5203    0.2163 C.ar      1 ATP         0.1640
     27 N6         -2.9873    5.4319   -0.6020 N.pl3     1 ATP        -0.4916
     28 N1         -3.0414    4.1119    1.3596 N.pl3     1 ATP        -0.4390
     29 C2         -2.4169    3.1071    2.1904 C.ar      1 ATP         0.5691
     30 N3         -1.2928    2.5191    1.9210 N.ar      1 ATP        -0.4283
     31 C4         -0.7202    2.9326    0.7534 C.ar      1 ATP         0.2226
     32 HOA2        1.5957   -0.5068   -5.7928 H         1 ATP         0.2010
     33 H5'1        1.3514    0.2330   -2.1577 H         1 ATP        -0.0393
     34 H5'2        2.1280   -1.3678   -2.0460 H         1 ATP        -0.0393
     35 H4'         3.8040   -0.1399   -0.4044 H         1 ATP        -0.0393
     36 H3'         1.6768   -1.7637    0.2732 H         1 ATP        -0.0393
     37 HO3'        2.2231   -1.2979    2.3952 H         1 ATP         0.2010
     38 H2'         0.0002   -0.0084   -0.0014 H         1 ATP        -0.0393
     39 HO2'       -0.1554   -0.9852    2.0577 H         1 ATP         0.2010
     40 H1'         1.7718    1.9211    1.6015 H         1 ATP        -0.0393
     41 H8          1.3565    3.3309   -1.8916 H         1 ATP         0.0000
     42 HN61       -2.4952    5.6785   -1.4487 H         1 ATP         0.2048
     43 HN62       -3.8637    5.8828   -0.3819 H         1 ATP         0.2048
     44 H2         -2.9911    2.8734    3.1000 H         1 ATP        -0.1292
     45 H45        -3.9253    4.5332    1.6302 H         1 ATP         0.2048
@<TRIPOS>BOND
     1    1    2 2
     2    1    3 1
     3    1    4 1
     4    1    8 1
     5    5    6 2
     6    5    7 1
     7    5    8 1
     8    5   12 1
     9    9   10 2
    10    9   11 1
    11    9   12 1
    12    9   13 1
    13   11   32 1
    14   13   14 1
    15   14   15 1
    16   14   33 1
    17   14   34 1
    18   15   16 1
    19   15   17 1
    20   15   35 1
    21   16   21 1
    22   17   18 1
    23   17   19 1
    24   17   36 1
    25   18   37 1
    26   19   20 1
    27   19   21 1
    28   19   38 1
    29   20   39 1
    30   21   22 1
    31   21   40 1
    32   22   23 ar
    33   22   31 ar
    34   23   24 ar
    35   23   41 1
    36   24   25 ar
    37   25   26 ar
    38   25   31 ar
    39   26   27 1
    40   26   28 ar
    41   27   42 1
    42   27   43 1
    43   28   29 ar
    44   28   45 1
    45   29   30 ar
    46   29   44 1
    47   30   31 ar
@<TRIPOS>SUBSTRUCTURE
     1 ATP         1 GROUP 0 A     ****
@<TRIPOS>MOLECULE
[[[5-(6-amino-1,8-dihydropurine-6,8-diylium-7-id-9-yl)-3,4-dihydroxy-tetrahydrofuran-2-yl]methoxy-hydroxy-phosphoryl]oxy-oxido-phosphoryl] phosphate
   45    47     1     0     0
SMALL
USER_CHARGES

@<TRIPOS>ATOM
      1 PG          7.8024   -4.1771   -2.5523 P.3       1 ATP        -1.1921
      2 O1G         7.5101   -4.6663   -1.1378 O.co2     1 ATP         0.3195
      3 O2G         7.6530   -5.2443   -3.6311 O.co2     1 ATP         0.3195
      4 O3G         9.0734   -3.3428   -2.6744 O.co2     1 ATP         0.3195
      5 PB          6.1531   -1.7143   -2.1299 P.3       1 ATP        -1.1062
      6 O1B         5.6343   -2.0408   -0.7472 O.co2     1 ATP         0.3195
      7 O2B         7.2566   -0.6981   -2.3259 O.co2     1 ATP         0.3195
      8 O3B         6.5961   -3.1003   -2.8706 O.3       1 ATP         0.4672
      9 PA          3.5157   -2.0910   -3.3935 P.3       1 ATP        -0.9715
     10 O1A         3.6869   -3.5720   -3.5704 O.2       1 ATP         0.2707
     11 O2A         2.9260   -1.3252   -4.6908 O.3       1 ATP         0.0326
     12 O3A         4.8919   -1.3002   -3.0790 O.3       1 ATP         0.4672
     13 O5'         2.5245   -1.6648   -2.1878 O.3       1 ATP         0.1618
     14 C5'         2.2816   -0.2918   -1.9206 C.3       1 ATP         0.1504
     15 C4'         2.7248    0.0226   -0.4980 C.3       1 ATP         0.1111
     16 O4'         2.4697    1.4219   -0.2462 O.3       1 ATP        -0.1436
     17 C3'         1.9404   -0.7419    0.5596 C.3       1 ATP         0.1111
     18 O3'         2.7418   -0.8086    1.7389 O.3       1 ATP        -0.2728
     19 C2'         0.7477    0.1630    0.7858 C.3       1 ATP         0.1111
     20 O2'         0.1373   -0.0577    2.0407 O.3       1 ATP        -0.2728
     21 C1'         1.3733    1.5427    0.6747 C.3       1 ATP         0.2693
     22 N9          0.4520    2.5240    0.1767 N.pl3     1 ATP        -0.3222
     23 C8          0.1798    2.8712   -1.2933 C.ar      1 ATP         0.1640
     24 N7         -0.7494    3.8400   -1.3610 N.2       1 ATP        -0.1640
     25 C5         -1.0173    4.0603   -0.0358 C.ar      1 ATP         0.0820
     26 C6         -2.0105    5.0717    0.4241 C.ar      1 ATP         0.1640
     27 N6         -2.6723    5.7982   -0.4628 N.pl3     1 ATP        -0.4916
     28 N1         -2.1445    5.1522    1.7502 N.pl3     1 ATP        -0.4390
     29 C2         -1.3755    4.3143    2.6427 C.ar      1 ATP         0.5691
     30 N3         -0.5075    3.4292    2.2616 N.ar      1 ATP        -0.4283
     31 C4         -0.3667    3.3425    0.9070 C.ar      1 ATP         0.2226
     32 HOA2        2.0440   -1.5831   -5.0338 H         1 ATP         0.2010
     33 H5'1        2.8432    0.3119   -2.6398 H         1 ATP        -0.0393
     34 H5'2        1.2128   -0.0927   -2.0428 H         1 ATP        -0.0393
     35 H4'         3.8040   -0.1399   -0.4044 H         1 ATP        -0.0393
     36 H3'         1.6768   -1.7637    0.2732 H         1 ATP        -0.0393
     37 HO3'        2.2231   -1.2979    2.3952 H         1 ATP         0.2010
     38 H2'         0.0002   -0.0084   -0.0014 H         1 ATP        -0.0393
     39 HO2'       -0.6132    0.5577    2.1063 H         1 ATP         0.2010
     40 H1'         1.7718    1.9211    1.6015 H         1 ATP        -0.0393
     41 H8          0.6089    2.4651   -2.2147 H         1 ATP         0.0000
     42 HN61       -2.5055    5.6680   -1.4503 H         1 ATP         0.2048
     43 HN62       -3.3462    6.4841   -0.1542 H         1 ATP         0.2048
     44 H2         -1.5932    4.4937    3.7066 H         1 ATP        -0.1292
     45 H45        -2.8098    5.8270    2.1160 H         1 ATP         0.2048
@<TRIPOS>BOND
     1    1    2 2
     2    1    3 1
     3    1    4 1
     4    1    8 1
     5    5    6 2
     6    5    7 1
     7    5    8 1
     8    5   12 1
     9    9   10 2
    10    9   11 1
    11    9   12 1
    12    9   13 1
    13   11   32 1
    14   13   14 1
    15   14   15 1
    16   14   33 1
    17   14   34 1
    18   15   16 1
    19   15   17 1
    20   15   35 1
    21   16   21 1
    22   17   18 1
    23   17   19 1
    24   17   36 1
    25   18   37 1
    26   19   20 1
    27   19   21 1
    28   19   38 1
    29   20   39 1
    30   21   22 1
    31   21   40 1
    32   22   23 ar
    33   22   31 ar
    34   23   24 ar
    35   23   41 1
    36   24   25 ar
    37   25   26 ar
    38   25   31 ar
    39   26   27 1
    40   26   28 ar
    41   27   42 1
    42   27   43 1
    43   28   29 ar
    44   28   45 1
    45   29   30 ar
    46   29   44 1
    47   30   31 ar
@<TRIPOS>SUBSTRUCTURE
     1 ATP         1 GROUP 0 A     ****
@<TRIPOS>MOLECULE
[[[5-(6-amino-1,8-dihydropurine-6,8-diylium-7-id-9-yl)-3,4-dihydroxy-tetrahydrofuran-2-yl]methoxy-hydroxy-phosphoryl]oxy-oxido-phosphoryl] phosphate
   45    47     1     0     0
SMALL
USER_CHARGES

@<TRIPOS>ATOM
      1 PG          0.2602    4.8022   -5.8317 P.3       1 ATP        -1.1921
      2 O1G         1.3866    5.5490   -6.5384 O.co2     1 ATP         0.3195
      3 O2G        -0.5603    3.8937   -6.7407 O.co2     1 ATP         0.3195
      4 O3G        -0.5783    5.6725   -4.9011 O.co2     1 ATP         0.3195
      5 PB          2.0738    4.0321   -3.5774 P.3       1 ATP        -1.1062
      6 O1B         3.3592    4.6020   -4.1349 O.co2     1 ATP         0.3195
      7 O2B         1.3266    4.7397   -2.4685 O.co2     1 ATP         0.3195
      8 O3B         1.0337    3.7680   -4.8080 O.3       1 ATP         0.4672
      9 PA          2.9489    1.2416   -3.9536 P.3       1 ATP        -0.9715
     10 O1A         4.1018    1.6049   -4.8439 O.2       1 ATP         0.2707
     11 O2A         1.6644    0.6409   -4.7324 O.3       1 ATP         0.0326
     12 O3A         2.3392    2.4880   -3.1212 O.3       1 ATP         0.4672
     13 O5'         3.2903    0.1346   -2.8241 O.3       1 ATP         0.1618
     14 C5'         2.2816   -0.2918   -1.9206 C.3       1 ATP         0.1504
     15 C4'         2.7248    0.0226   -0.4980 C.3       1 ATP         0.1111
     16 O4'         2.4697    1.4219   -0.2462 O.3       1 ATP        -0.1436
     17 C3'         1.9404   -0.7419    0.5596 C.3       1 ATP         0.1111
     18 O3'         2.7418   -0.8086    1.7389 O.3       1 ATP        -0.2728
     19 C2'         0.7477    0.1630    0.7858 C.3       1 ATP         0.1111
     20 O2'         0.1373   -0.0577    2.0407 O.3       1 ATP        -0.2728
     21 C1'         1.3733    1.5427    0.6747 C.3       1 ATP         0.2693
     22 N9          0.4520    2.5240    0.1767 N.pl3     1 ATP        -0.3222
     23 C8         -0.3054    2.4845   -1.1576 C.ar      1 ATP         0.1640
     24 N7         -1.0755    3.5806   -1.2691 N.2       1 ATP        -0.1640
     25 C5         -0.8043    4.2306   -0.0942 C.ar      1 ATP         0.0820
     26 C6         -1.4324    5.5335    0.2646 C.ar      1 ATP         0.1640
     27 N6         -2.2885    6.1054   -0.5675 N.pl3     1 ATP        -0.4916
     28 N1         -1.0537    6.0229    1.4478 N.pl3     1 ATP        -0.4390
     29 C2         -0.1096    5.3242    2.2908 C.ar      1 ATP         0.5691
     30 N3          0.4468    4.1904    1.9960 N.ar      1 ATP        -0.4283
     31 C4          0.0631    3.6855    0.7877 C.ar      1 ATP         0.2226
     32 HOA2        1.7698   -0.1802   -5.2585 H         1 ATP         0.2010
     33 H5'1        1.3514    0.2330   -2.1577 H         1 ATP        -0.0393
     34 H5'2        2.1280   -1.3678   -2.0460 H         1 ATP        -0.0393
     35 H4'         3.8040   -0.1399   -0.4044 H         1 ATP        -0.0393
     36 H3'         1.6768   -1.7637    0.2732 H         1 ATP        -0.0393
     37 HO3'        2.2231   -1.2979    2.3952 H         1 ATP         0.2010
     38 H2'         0.0002   -0.0084   -0.0014 H         1 ATP        -0.0393
     39 HO2'       -0.6132    0.5577    2.1063 H         1 ATP         0.2010
     40 H1'         1.7718    1.9211    1.6015 H         1 ATP        -0.0393
     41 H8         -0.2991    1.7413   -1.9611 H         1 ATP         0.0000
     42 HN61       -2.5167    5.6603   -1.4447 H         1 ATP         0.2048
     43 HN62       -2.7159    6.9882   -0.3270 H         1 ATP         0.2048
     44 H2          0.1059    5.8491    3.2340 H         1 ATP        -0.1292
     45 H45        -1.4532    6.9099    1.7401 H         1 ATP         0.2048
@<TRIPOS>BOND
     1    1    2 2
     2    1    3 1
     3    1    4 1
     4    1    8 1
     5    5    6 2
     6    5    7 1
     7    5    8 1
     8    5   12 1
     9    9   10 2
    10    9   11 1
    11    9   12 1
    12    9   13 1
    13   11   32 1
    14   13   14 1
    15   14   15 1
    16   14   33 1
    17   14   34 1
    18   15   16 1
    19   15   17 1
    20   15   35 1
    21   16   21 1
    22   17   18 1
    23   17   19 1
    24   17   36 1
    25   18   37 1
    26   19   20 1
    27   19   21 1
    28   19   38 1
    29   20   39 1
    30   21   22 1
    31   21   40 1
    32   22   23 ar
    33   22   31 ar
    34   23   24 ar
    35   23   41 1
    36   24   25 ar
    37   25   26 ar
    38   25   31 ar
    39   26   27 1
    40   26   28 ar
    41   27   42 1
    42   27   43 1
    43   28   29 ar
    44   28   45 1
    45   29   30 ar
    46   29   44 1
    47   30   31 ar
@<TRIPOS>SUBSTRUCTURE
     1 ATP         1 GROUP 0 A     ****
@<TRIPOS>MOLECULE
[[[5-(6-amino-1,8-dihydropurine-6,8-diylium-7-id-9-yl)-3,4-dihydroxy-tetrahydrofuran-2-yl]methoxy-hydroxy-phosphoryl]oxy-oxido-phosphoryl] phosphate
   45    47     1     0     0
SMALL
USER_CHARGES

@<TRIPOS>ATOM
      1 PG          3.7795   -3.3930   -6.3699 P.3       1 ATP        -1.1921
      2 O1G         4.2014   -2.9764   -4.9648 O.co2     1 ATP         0.3195
      3 O2G         4.0237   -4.8635   -6.6906 O.co2     1 ATP         0.3195
      4 O3G         4.2296   -2.4338   -7.4671 O.co2     1 ATP         0.3195
      5 PB          1.1667   -1.9560   -6.1006 P.3       1 ATP        -1.1062
      6 O1B         1.5776   -0.8303   -7.0234 O.co2     1 ATP         0.3195
      7 O2B        -0.2646   -2.4443   -6.0600 O.co2     1 ATP         0.3195
      8 O3B         2.1386   -3.2408   -6.3668 O.3       1 ATP         0.4672
      9 PA          1.5771   -2.4667   -3.2257 P.3       1 ATP        -0.9715
     10 O1A         1.9405   -3.9104   -3.4192 O.2       1 ATP         0.2707
     11 O2A         0.0761   -2.2218   -2.6739 O.3       1 ATP         0.0326
     12 O3A         1.6317   -1.5847   -4.5811 O.3       1 ATP         0.4672
     13 O5'         2.5245   -1.6648   -2.1878 O.3       1 ATP         0.1618
     14 C5'         2.2816   -0.2918   -1.9206 C.3       1 ATP         0.1504
     15 C4'         2.7248    0.0226   -0.4980 C.3       1 ATP         0.1111
     16 O4'         2.4697    1.4219   -0.2462 O.3       1 ATP        -0.1436
     17 C3'         1.9404   -0.7419    0.5596 C.3       1 ATP         0.1111
     18 O3'         2.7418   -0.8086    1.7389 O.3       1 ATP        -0.2728
     19 C2'         0.7477    0.1630    0.7858 C.3       1 ATP         0.1111
     20 O2'         0.1373   -0.0577    2.0407 O.3       1 ATP        -0.2728
     21 C1'         1.3733    1.5427    0.6747 C.3       1 ATP         0.2693
     22 N9          0.4520    2.5240    0.1767 N.pl3     1 ATP        -0.3222
     23 C8          0.1798    2.8712   -1.2933 C.ar      1 ATP         0.1640
     24 N7         -0.7494    3.8400   -1.3610 N.2       1 ATP        -0.1640
     25 C5         -1.0173    4.0603   -0.0358 C.ar      1 ATP         0.0820
     26 C6         -2.0105    5.0717    0.4241 C.ar      1 ATP         0.1640
     27 N6         -2.6723    5.7982   -0.4628 N.pl3     1 ATP        -0.4916
     28 N1         -2.1445    5.1522    1.7502 N.pl3     1 ATP        -0.4390
     29 C2         -1.3755    4.3143    2.6427 C.ar      1 ATP         0.5691
     30 N3         -0.5075    3.4292    2.2616 N.ar      1 ATP        -0.4283
     31 C4         -0.3667    3.3425    0.9070 C.ar      1 ATP         0.2226
     32 HOA2       -0.1792   -2.6042   -1.8075 H         1 ATP         0.2010
     33 H5'1        2.8432    0.3119   -2.6398 H         1 ATP        -0.0393
     34 H5'2        1.2128   -0.0927   -2.0428 H         1 ATP        -0.0393
     35 H4'         3.8040   -0.1399   -0.4044 H         1 ATP        -0.0393
     36 H3'         1.6768   -1.7637    0.2732 H         1 ATP        -0.0393
     37 HO3'        2.2231   -1.2979    2.3952 H         1 ATP         0.2010
     38 H2'         0.0002   -0.0084   -0.0014 H         1 ATP        -0.0393
     39 HO2'       -0.1554   -0.9852    2.0577 H         1 ATP         0.2010
     40 H1'         1.7718    1.9211    1.6015 H         1 ATP        -0.0393
     41 H8          0.6089    2.4651   -2.2147 H         1 ATP         0.0000
     42 HN61       -2.5055    5.6680   -1.4503 H         1 ATP         0.2048
     43 HN62       -3.3462    6.4841   -0.1542 H         1 ATP         0.2048
     44 H2         -1.5932    4.4937    3.7066 H         1 ATP        -0.1292
     45 H45        -2.8098    5.8270    2.1160 H         1 ATP         0.2048
@<TRIPOS>BOND
     1    1    2 2
     2    1    3 1
     3    1    4 1
     4    1    8 1
     5    5    6 2
     6    5    7 1
     7    5    8 1
     8    5   12 1
     9    9   10 2
    10    9   11 1
    11    9   12 1
    12    9   13 1
    13   11   32 1
    14   13   14 1
    15   14   15 1
    16   14   33 1
    17   14   34 1
    18   15   16 1
    19   15   17 1
    20   15   35 1
    21   16   21 1
    22   17   18 1
    23   17   19 1
    24   17   36 1
    25   18   37 1
    26   19   20 1
    27   19   21 1
    28   19   38 1
    29   20   39 1
    30   21   22 1
    31   21   40 1
    32   22   23 ar
    33   22   31 ar
    34   23   24 ar
    35   23   41 1
    36   24   25 ar
    37   25   26 ar
    38   25   31 ar
    39   26   27 1
    40   26   28 ar
    41   27   42 1
    42   27   43 1
    43   28   29 ar
    44   28   45 1
    45   29   30 ar
    46   29   44 1
    47   30   31 ar
@<TRIPOS>SUBSTRUCTURE
     1 ATP         1 GROUP 0 A     ****
@<TRIPOS>MOLECULE
[[[5-(6-amino-1,8-dihydropurine-6,8-diylium-7-id-9-yl)-3,4-dihydroxy-tetrahydrofuran-2-yl]methoxy-hydroxy-phosphoryl]oxy-oxido-phosphoryl] phosphate
   45    47     1     0     0
SMALL
USER_CHARGES

@<TRIPOS>ATOM
      1 PG         -2.1606    0.0092   -5.5680 P.3       1 ATP        -1.1921
      2 O1G        -2.2485   -0.0786   -7.0880 O.co2     1 ATP         0.3195
      3 O2G        -2.9034   -1.0987   -4.8293 O.co2     1 ATP         0.3195
      4 O3G        -2.4096    1.4059   -5.0078 O.co2     1 ATP         0.3195
      5 PB          0.7880    0.5152   -5.6854 P.3       1 ATP        -1.1062
      6 O1B         0.9710    0.3587   -7.1786 O.co2     1 ATP         0.3195
      7 O2B         0.7821    1.8846   -5.0425 O.co2     1 ATP         0.3195
      8 O3B        -0.5711   -0.2686   -5.2331 O.3       1 ATP         0.4672
      9 PA          3.3423   -0.0257   -4.3151 P.3       1 ATP        -0.9715
     10 O1A         4.1311    0.9234   -5.1701 O.2       1 ATP         0.2707
     11 O2A         4.0498   -1.4615   -4.0799 O.3       1 ATP         0.0326
     12 O3A         1.8928   -0.4118   -4.9217 O.3       1 ATP         0.4672
     13 O5'         3.0213    0.5153   -2.8245 O.3       1 ATP         0.1618
     14 C5'         2.2816   -0.2918   -1.9206 C.3       1 ATP         0.1504
     15 C4'         2.7248    0.0226   -0.4980 C.3       1 ATP         0.1111
     16 O4'         2.4697    1.4219   -0.2462 O.3       1 ATP        -0.1436
     17 C3'         1.9404   -0.7419    0.5596 C.3       1 ATP         0.1111
     18 O3'         2.7418   -0.8086    1.7389 O.3       1 ATP        -0.2728
     19 C2'         0.7477    0.1630    0.7858 C.3       1 ATP         0.1111
     20 O2'         0.1373   -0.0577    2.0407 O.3       1 ATP        -0.2728
     21 C1'         1.3733    1.5427    0.6747 C.3       1 ATP         0.2693
     22 N9          0.4520    2.5240    0.1767 N.pl3     1 ATP        -0.3222
     23 C8         -0.3054    2.4845   -1.1576 C.ar      1 ATP         0.1640
     24 N7         -1.0755    3.5806   -1.2691 N.2       1 ATP        -0.1640
     25 C5         -0.8043    4.2306   -0.0942 C.ar      1 ATP         0.0820
     26 C6         -1.4324    5.5335    0.2646 C.ar      1 ATP         0.1640
     27 N6         -2.2885    6.1054   -0.5675 N.pl3     1 ATP        -0.4916
     28 N1         -1.0537    6.0229    1.4478 N.pl3     1 ATP        -0.4390
     29 C2         -0.1096    5.3242    2.2908 C.ar      1 ATP         0.5691
     30 N3          0.4468    4.1904    1.9960 N.ar      1 ATP        -0.4283
     31 C4          0.0631    3.6855    0.7877 C.ar      1 ATP         0.2226
     32 HOA2        4.9282   -1.4920   -3.6444 H         1 ATP         0.2010
     33 H5'1        1.2163   -0.0770   -2.0471 H         1 ATP        -0.0393
     34 H5'2        2.4655   -1.3443   -2.1563 H         1 ATP        -0.0393
     35 H4'         3.8040   -0.1399   -0.4044 H         1 ATP        -0.0393
     36 H3'         1.6768   -1.7637    0.2732 H         1 ATP        -0.0393
     37 HO3'        2.2231   -1.2979    2.3952 H         1 ATP         0.2010
     38 H2'         0.0002   -0.0084   -0.0014 H         1 ATP        -0.0393
     39 HO2'       -0.6132    0.5577    2.1063 H         1 ATP         0.2010
     40 H1'         1.7718    1.9211    1.6015 H         1 ATP        -0.0393
     41 H8         -0.2991    1.7413   -1.9611 H         1 ATP         0.0000
     42 HN61       -2.5167    5.6603   -1.4447 H         1 ATP         0.2048
     43 HN62       -2.7159    6.9882   -0.3270 H         1 ATP         0.2048
     44 H2          0.1059    5.8491    3.2340 H         1 ATP        -0.1292
     45 H45        -1.4532    6.9099    1.7401 H         1 ATP         0.2048
@<TRIPOS>BOND
     1    1    2 2
     2    1    3 1
     3    1    4 1
     4    1    8 1
     5    5    6 2
     6    5    7 1
     7    5    8 1
     8    5   12 1
     9    9   10 2
    10    9   11 1
    11    9   12 1
    12    9   13 1
    13   11   32 1
    14   13   14 1
    15   14   15 1
    16   14   33 1
    17   14   34 1
    18   15   16 1
    19   15   17 1
    20   15   35 1
    21   16   21 1
    22   17   18 1
    23   17   19 1
    24   17   36 1
    25   18   37 1
    26   19   20 1
    27   19   21 1
    28   19   38 1
    29   20   39 1
    30   21   22 1
    31   21   40 1
    32   22   23 ar
    33   22   31 ar
    34   23   24 ar
    35   23   41 1
    36   24   25 ar
    37   25   26 ar
    38   25   31 ar
    39   26   27 1
    40   26   28 ar
    41   27   42 1
    42   27   43 1
    43   28   29 ar
    44   28   45 1
    45   29   30 ar
    46   29   44 1
    47   30   31 ar
@<TRIPOS>SUBSTRUCTURE
     1 ATP         1 GROUP 0 A     ****
@<TRIPOS>MOLECULE
[[[5-(6-amino-1,8-dihydropurine-6,8-diylium-7-id-9-yl)-3,4-dihydroxy-tetrahydrofuran-2-yl]methoxy-hydroxy-phosphoryl]oxy-oxido-phosphoryl] phosphate
   45    47     1     0     0
SMALL
USER_CHARGES

@<TRIPOS>ATOM
      1 PG          0.6396    1.7554   -6.4962 P.3       1 ATP        -1.1921
      2 O1G        -0.7478    1.1231   -6.4673 O.co2     1 ATP         0.3195
      3 O2G         0.7622    3.0421   -5.6872 O.co2     1 ATP         0.3195
      4 O3G         1.2614    1.8333   -7.8868 O.co2     1 ATP         0.3195
      5 PB          1.9464   -0.8909   -5.9930 P.3       1 ATP        -1.1062
      6 O1B         0.6920   -1.7155   -5.8087 O.co2     1 ATP         0.3195
      7 O2B         2.7450   -0.9671   -7.2757 O.co2     1 ATP         0.3195
      8 O3B         1.5978    0.6770   -5.6995 O.3       1 ATP         0.4672
      9 PA          3.9517   -0.1778   -3.9522 P.3       1 ATP        -0.9715
     10 O1A         4.6801    0.7864   -4.8431 O.2       1 ATP         0.2707
     11 O2A         4.9129   -1.1802   -3.1224 O.3       1 ATP         0.0326
     12 O3A         2.9506   -1.1764   -4.7388 O.3       1 ATP         0.4672
     13 O5'         3.0213    0.5153   -2.8245 O.3       1 ATP         0.1618
     14 C5'         2.2816   -0.2918   -1.9206 C.3       1 ATP         0.1504
     15 C4'         2.7248    0.0226   -0.4980 C.3       1 ATP         0.1111
     16 O4'         2.4697    1.4219   -0.2462 O.3       1 ATP        -0.1436
     17 C3'         1.9404   -0.7419    0.5596 C.3       1 ATP         0.1111
     18 O3'         2.7418   -0.8086    1.7389 O.3       1 ATP        -0.2728
     19 C2'         0.7477    0.1630    0.7858 C.3       1 ATP         0.1111
     20 O2'         0.1373   -0.0577    2.0407 O.3       1 ATP        -0.2728
     21 C1'         1.3733    1.5427    0.6747 C.3       1 ATP         0.2693
     22 N9          0.4520    2.5240    0.1767 N.pl3     1 ATP        -0.3222
     23 C8          0.1798    2.8712   -1.2933 C.ar      1 ATP         0.1640
     24 N7         -0.7494    3.8400   -1.3610 N.2       1 ATP        -0.1640
     25 C5         -1.0173    4.0603   -0.0358 C.ar      1 ATP         0.0820
     26 C6         -2.0105    5.0717    0.4241 C.ar      1 ATP         0.1640
     27 N6         -2.6723    5.7982   -0.4628 N.pl3     1 ATP        -0.4916
     28 N1         -2.1445    5.1522    1.7502 N.pl3     1 ATP        -0.4390
     29 C2         -1.3755    4.3143    2.6427 C.ar      1 ATP         0.5691
     30 N3         -0.5075    3.4292    2.2616 N.ar      1 ATP        -0.4283
     31 C4         -0.3667    3.3425    0.9070 C.ar      1 ATP         0.2226
     32 HOA2        5.5708   -0.8011   -2.5015 H         1 ATP         0.2010
     33 H5'1        1.2163   -0.0770   -2.0471 H         1 ATP        -0.0393
     34 H5'2        2.4655   -1.3443   -2.1563 H         1 ATP        -0.0393
     35 H4'         3.8040   -0.1399   -0.4044 H         1 ATP        -0.0393
     36 H3'         1.6768   -1.7637    0.2732 H         1 ATP        -0.0393
     37 HO3'        2.2231   -1.2979    2.3952 H         1 ATP         0.2010
     38 H2'         0.0002   -0.0084   -0.0014 H         1 ATP        -0.0393
     39 HO2'       -0.1554   -0.9852    2.0577 H         1 ATP         0.2010
     40 H1'         1.7718    1.9211    1.6015 H         1 ATP        -0.0393
     41 H8          0.6089    2.4651   -2.2147 H         1 ATP         0.0000
     42 HN61       -2.5055    5.6680   -1.4503 H         1 ATP         0.2048
     43 HN62       -3.3462    6.4841   -0.1542 H         1 ATP         0.2048
     44 H2         -1.5932    4.4937    3.7066 H         1 ATP        -0.1292
     45 H45        -2.8098    5.8270    2.1160 H         1 ATP         0.2048
@<TRIPOS>BOND
     1    1    2 2
     2    1    3 1
     3    1    4 1
     4    1    8 1
     5    5    6 2
     6    5    7 1
     7    5    8 1
     8    5   12 1
     9    9   10 2
    10    9   11 1
    11    9   12 1
    12    9   13 1
    13   11   32 1
    14   13   14 1
    15   14   15 1
    16   14   33 1
    17   14   34 1
    18   15   16 1
    19   15   17 1
    20   15   35 1
    21   16   21 1
    22   17   18 1
    23   17   19 1
    24   17   36 1
    25   18   37 1
    26   19   20 1
    27   19   21 1
    28   19   38 1
    29   20   39 1
    30   21   22 1
    31   21   40 1
    32   22   23 ar
    33   22   31 ar
    34   23   24 ar
    35   23   41 1
    36   24   25 ar
    37   25   26 ar
    38   25   31 ar
    39   26   27 1
    40   26   28 ar
    41   27   42 1
    42   27   43 1
    43   28   29 ar
    44   28   45 1
    45   29   30 ar
    46   29   44 1
    47   30   31 ar
@<TRIPOS>SUBSTRUCTURE
     1 ATP         1 GROUP 0 A     ****
@<TRIPOS>MOLECULE
[[[5-(6-amino-1,8-dihydropurine-6,8-diylium-7-id-9-yl)-3,4-dihydroxy-tetrahydrofuran-2-yl]methoxy-hydroxy-phosphoryl]oxy-oxido-phosphoryl] phosphate
   45    47     1     0     0
SMALL
USER_CHARGES

@<TRIPOS>ATOM
      1 PG          2.9158   -0.6125   -8.1333 P.3       1 ATP        -1.1921
      2 O1G         1.6445   -1.0507   -8.8527 O.co2     1 ATP         0.3195
      3 O2G         3.9329    0.0916   -9.0248 O.co2     1 ATP         0.3195
      4 O3G         3.5181   -1.6791   -7.2244 O.co2     1 ATP         0.3195
      5 PB          1.3354    0.5219   -5.8574 P.3       1 ATP        -1.1062
      6 O1B         1.3812    1.8465   -5.1288 O.co2     1 ATP         0.3195
      7 O2B         0.0296   -0.0295   -6.3860 O.co2     1 ATP         0.3195
      8 O3B         2.4114    0.5548   -7.0850 O.3       1 ATP         0.4672
      9 PA          3.4996   -0.6423   -4.2278 P.3       1 ATP        -0.9715
     10 O1A         4.5979   -0.0922   -5.0910 O.2       1 ATP         0.2707
     11 O2A         3.6913   -2.1925   -3.8066 O.3       1 ATP         0.0326
     12 O3A         2.0383   -0.6157   -4.9220 O.3       1 ATP         0.4672
     13 O5'         3.2903    0.1346   -2.8241 O.3       1 ATP         0.1618
     14 C5'         2.2816   -0.2918   -1.9206 C.3       1 ATP         0.1504
     15 C4'         2.7248    0.0226   -0.4980 C.3       1 ATP         0.1111
     16 O4'         2.4697    1.4219   -0.2462 O.3       1 ATP        -0.1436
     17 C3'         1.9404   -0.7419    0.5596 C.3       1 ATP         0.1111
     18 O3'         2.7418   -0.8086    1.7389 O.3       1 ATP        -0.2728
     19 C2'         0.7477    0.1630    0.7858 C.3       1 ATP         0.1111
     20 O2'         0.1373   -0.0577    2.0407 O.3       1 ATP        -0.2728
     21 C1'         1.3733    1.5427    0.6747 C.3       1 ATP         0.2693
     22 N9          0.4520    2.5240    0.1767 N.pl3     1 ATP        -0.3222
     23 C8          0.1798    2.8712   -1.2933 C.ar      1 ATP         0.1640
     24 N7         -0.7494    3.8400   -1.3610 N.2       1 ATP        -0.1640
     25 C5         -1.0173    4.0603   -0.0358 C.ar      1 ATP         0.0820
     26 C6         -2.0105    5.0717    0.4241 C.ar      1 ATP         0.1640
     27 N6         -2.6723    5.7982   -0.4628 N.pl3     1 ATP        -0.4916
     28 N1         -2.1445    5.1522    1.7502 N.pl3     1 ATP        -0.4390
     29 C2         -1.3755    4.3143    2.6427 C.ar      1 ATP         0.5691
     30 N3         -0.5075    3.4292    2.2616 N.ar      1 ATP        -0.4283
     31 C4         -0.3667    3.3425    0.9070 C.ar      1 ATP         0.2226
     32 HOA2        4.4877   -2.4503   -3.2954 H         1 ATP         0.2010
     33 H5'1        1.3514    0.2330   -2.1577 H         1 ATP        -0.0393
     34 H5'2        2.1280   -1.3678   -2.0460 H         1 ATP        -0.0393
     35 H4'         3.8040   -0.1399   -0.4044 H         1 ATP        -0.0393
     36 H3'         1.6768   -1.7637    0.2732 H         1 ATP        -0.0393
     37 HO3'        2.2231   -1.2979    2.3952 H         1 ATP         0.2010
     38 H2'         0.0002   -0.0084   -0.0014 H         1 ATP        -0.0393
     39 HO2'       -0.6132    0.5577    2.1063 H         1 ATP         0.2010
     40 H1'         1.7718    1.9211    1.6015 H         1 ATP        -0.0393
     41 H8          0.6089    2.4651   -2.2147 H         1 ATP         0.0000
     42 HN61       -2.5055    5.6680   -1.4503 H         1 ATP         0.2048
     43 HN62       -3.3462    6.4841   -0.1542 H         1 ATP         0.2048
     44 H2         -1.5932    4.4937    3.7066 H         1 ATP        -0.1292
     45 H45        -2.8098    5.8270    2.1160 H         1 ATP         0.2048
@<TRIPOS>BOND
     1    1    2 2
     2    1    3 1
     3    1    4 1
     4    1    8 1
     5    5    6 2
     6    5    7 1
     7    5    8 1
     8    5   12 1
     9    9   10 2
    10    9   11 1
    11    9   12 1
    12    9   13 1
    13   11   32 1
    14   13   14 1
    15   14   15 1
    16   14   33 1
    17   14   34 1
    18   15   16 1
    19   15   17 1
    20   15   35 1
    21   16   21 1
    22   17   18 1
    23   17   19 1
    24   17   36 1
    25   18   37 1
    26   19   20 1
    27   19   21 1
    28   19   38 1
    29   20   39 1
    30   21   22 1
    31   21   40 1
    32   22   23 ar
    33   22   31 ar
    34   23   24 ar
    35   23   41 1
    36   24   25 ar
    37   25   26 ar
    38   25   31 ar
    39   26   27 1
    40   26   28 ar
    41   27   42 1
    42   27   43 1
    43   28   29 ar
    44   28   45 1
    45   29   30 ar
    46   29   44 1
    47   30   31 ar
@<TRIPOS>SUBSTRUCTURE
     1 ATP         1 GROUP 0 A     ****
@<TRIPOS>MOLECULE
[[[5-(6-amino-1,8-dihydropurine-6,8-diylium-7-id-9-yl)-3,4-dihydroxy-tetrahydrofuran-2-yl]methoxy-hydroxy-phosphoryl]oxy-oxido-phosphoryl] phosphate
   45    47     1     0     0
SMALL
USER_CHARGES

@<TRIPOS>ATOM
      1 PG          3.6585    4.4814   -4.5620 P.3       1 ATP        -1.1921
      2 O1G         4.1559    3.4438   -3.5612 O.co2     1 ATP         0.3195
      3 O2G         4.7161    4.9603   -5.5506 O.co2     1 ATP         0.3195
      4 O3G         2.8345    5.6042   -3.9399 O.co2     1 ATP         0.3195
      5 PB          1.1845    2.8869   -5.1108 P.3       1 ATP        -1.1062
      6 O1B         0.2867    3.8296   -4.3409 O.co2     1 ATP         0.3195
      7 O2B         0.6851    2.1759   -6.3492 O.co2     1 ATP         0.3195
      8 O3B         2.5687    3.6652   -5.4905 O.3       1 ATP         0.4672
      9 PA          2.8890    0.6159   -4.3157 P.3       1 ATP        -0.9715
     10 O1A         4.0478    1.0413   -5.1702 O.2       1 ATP         0.2707
     11 O2A         2.0278   -0.6137   -4.9188 O.3       1 ATP         0.0326
     12 O3A         1.7834    1.7734   -4.0790 O.3       1 ATP         0.4672
     13 O5'         3.2903    0.1346   -2.8241 O.3       1 ATP         0.1618
     14 C5'         2.2816   -0.2918   -1.9206 C.3       1 ATP         0.1504
     15 C4'         2.7248    0.0226   -0.4980 C.3       1 ATP         0.1111
     16 O4'         2.4697    1.4219   -0.2462 O.3       1 ATP        -0.1436
     17 C3'         1.9404   -0.7419    0.5596 C.3       1 ATP         0.1111
     18 O3'         2.7418   -0.8086    1.7389 O.3       1 ATP        -0.2728
     19 C2'         0.7477    0.1630    0.7858 C.3       1 ATP         0.1111
     20 O2'         0.1373   -0.0577    2.0407 O.3       1 ATP        -0.2728
     21 C1'         1.3733    1.5427    0.6747 C.3       1 ATP         0.2693
     22 N9          0.4520    2.5240    0.1767 N.pl3     1 ATP        -0.3222
     23 C8          0.5793    3.3338   -1.1209 C.ar      1 ATP         0.1640
     24 N7         -0.4807    4.1508   -1.2458 N.2       1 ATP        -0.1640
     25 C5         -1.1921    3.8572   -0.1126 C.ar      1 ATP         0.0820
     26 C6         -2.4855    4.5203    0.2163 C.ar      1 ATP         0.1640
     27 N6         -2.9873    5.4319   -0.6020 N.pl3     1 ATP        -0.4916
     28 N1         -3.0414    4.1119    1.3596 N.pl3     1 ATP        -0.4390
     29 C2         -2.4169    3.1071    2.1904 C.ar      1 ATP         0.5691
     30 N3         -1.2928    2.5191    1.9210 N.ar      1 ATP        -0.4283
     31 C4         -0.7202    2.9326    0.7534 C.ar      1 ATP         0.2226
     32 HOA2        2.4748   -1.4716   -5.0808 H         1 ATP         0.2010
     33 H5'1        1.3514    0.2330   -2.1577 H         1 ATP        -0.0393
     34 H5'2        2.1280   -1.3678   -2.0460 H         1 ATP        -0.0393
     35 H4'         3.8040   -0.1399   -0.4044 H         1 ATP        -0.0393
     36 H3'         1.6768   -1.7637    0.2732 H         1 ATP        -0.0393
     37 HO3'        2.2231   -1.2979    2.3952 H         1 ATP         0.2010
     38 H2'         0.0002   -0.0084   -0.0014 H         1 ATP        -0.0393
     39 HO2'       -0.1554   -0.9852    2.0577 H         1 ATP         0.2010
     40 H1'         1.7718    1.9211    1.6015 H         1 ATP        -0.0393
     41 H8          1.3565    3.3309   -1.8916 H         1 ATP         0.0000
     42 HN61       -2.4952    5.6785   -1.4487 H         1 ATP         0.2048
     43 HN62       -3.8637    5.8828   -0.3819 H         1 ATP         0.2048
     44 H2         -2.9911    2.8734    3.1000 H         1 ATP        -0.1292
     45 H45        -3.9253    4.5332    1.6302 H         1 ATP         0.2048
@<TRIPOS>BOND
     1    1    2 2
     2    1    3 1
     3    1    4 1
     4    1    8 1
     5    5    6 2
     6    5    7 1
     7    5    8 1
     8    5   12 1
     9    9   10 2
    10    9   11 1
    11    9   12 1
    12    9   13 1
    13   11   32 1
    14   13   14 1
    15   14   15 1
    16   14   33 1
    17   14   34 1
    18   15   16 1
    19   15   17 1
    20   15   35 1
    21   16   21 1
    22   17   18 1
    23   17   19 1
    24   17   36 1
    25   18   37 1
    26   19   20 1
    27   19   21 1
    28   19   38 1
    29   20   39 1
    30   21   22 1
    31   21   40 1
    32   22   23 ar
    33   22   31 ar
    34   23   24 ar
    35   23   41 1
    36   24   25 ar
    37   25   26 ar
    38   25   31 ar
    39   26   27 1
    40   26   28 ar
    41   27   42 1
    42   27   43 1
    43   28   29 ar
    44   28   45 1
    45   29   30 ar
    46   29   44 1
    47   30   31 ar
@<TRIPOS>SUBSTRUCTURE
     1 ATP         1 GROUP 0 A     ****
@<TRIPOS>MOLECULE
[[[5-(6-amino-1,8-dihydropurine-6,8-diylium-7-id-9-yl)-3,4-dihydroxy-tetrahydrofuran-2-yl]methoxy-hydroxy-phosphoryl]oxy-oxido-phosphoryl] phosphate
   45    47     1     0     0
SMALL
USER_CHARGES

@<TRIPOS>ATOM
      1 PG         -0.4552   -2.5939   -4.6461 P.3       1 ATP        -1.1921
      2 O1G        -1.9100   -2.5026   -5.0941 O.co2     1 ATP         0.3195
      3 O2G         0.2241   -3.9179   -4.9782 O.co2     1 ATP         0.3195
      4 O3G        -0.2091   -2.1087   -3.2211 O.co2     1 ATP         0.3195
      5 PB          0.1388    0.1287   -5.7410 P.3       1 ATP        -1.1062
      6 O1B         0.6791    0.5533   -7.0884 O.co2     1 ATP         0.3195
      7 O2B        -1.2709    0.4836   -5.3221 O.co2     1 ATP         0.3195
      8 O3B         0.3305   -1.4846   -5.5777 O.3       1 ATP         0.4672
      9 PA          2.7598    0.3945   -4.4166 P.3       1 ATP        -0.9715
     10 O1A         3.6063    1.3019   -5.2615 O.2       1 ATP         0.2707
     11 O2A         2.9406   -1.1809   -4.7370 O.3       1 ATP         0.0326
     12 O3A         1.1681    0.6348   -4.5802 O.3       1 ATP         0.4672
     13 O5'         3.0213    0.5153   -2.8245 O.3       1 ATP         0.1618
     14 C5'         2.2816   -0.2918   -1.9206 C.3       1 ATP         0.1504
     15 C4'         2.7248    0.0226   -0.4980 C.3       1 ATP         0.1111
     16 O4'         2.4697    1.4219   -0.2462 O.3       1 ATP        -0.1436
     17 C3'         1.9404   -0.7419    0.5596 C.3       1 ATP         0.1111
     18 O3'         2.7418   -0.8086    1.7389 O.3       1 ATP        -0.2728
     19 C2'         0.7477    0.1630    0.7858 C.3       1 ATP         0.1111
     20 O2'         0.1373   -0.0577    2.0407 O.3       1 ATP        -0.2728
     21 C1'         1.3733    1.5427    0.6747 C.3       1 ATP         0.2693
     22 N9          0.4520    2.5240    0.1767 N.pl3     1 ATP        -0.3222
     23 C8         -0.3054    2.4845   -1.1576 C.ar      1 ATP         0.1640
     24 N7         -1.0755    3.5806   -1.2691 N.2       1 ATP        -0.1640
     25 C5         -0.8043    4.2306   -0.0942 C.ar      1 ATP         0.0820
     26 C6         -1.4324    5.5335    0.2646 C.ar      1 ATP         0.1640
     27 N6         -2.2885    6.1054   -0.5675 N.pl3     1 ATP        -0.4916
     28 N1         -1.0537    6.0229    1.4478 N.pl3     1 ATP        -0.4390
     29 C2         -0.1096    5.3242    2.2908 C.ar      1 ATP         0.5691
     30 N3          0.4468    4.1904    1.9960 N.ar      1 ATP        -0.4283
     31 C4          0.0631    3.6855    0.7877 C.ar      1 ATP         0.2226
     32 HOA2        2.7360   -1.5082   -5.6388 H         1 ATP         0.2010
     33 H5'1        1.2163   -0.0770   -2.0471 H         1 ATP        -0.0393
     34 H5'2        2.4655   -1.3443   -2.1563 H         1 ATP        -0.0393
     35 H4'         3.8040   -0.1399   -0.4044 H         1 ATP        -0.0393
     36 H3'         1.6768   -1.7637    0.2732 H         1 ATP        -0.0393
     37 HO3'        2.2231   -1.2979    2.3952 H         1 ATP         0.2010
     38 H2'         0.0002   -0.0084   -0.0014 H         1 ATP        -0.0393
     39 HO2'       -0.1554   -0.9852    2.0577 H         1 ATP         0.2010
     40 H1'         1.7718    1.9211    1.6015 H         1 ATP        -0.0393
     41 H8         -0.2991    1.7413   -1.9611 H         1 ATP         0.0000
     42 HN61       -2.5167    5.6603   -1.4447 H         1 ATP         0.2048
     43 HN62       -2.7159    6.9882   -0.3270 H         1 ATP         0.2048
     44 H2          0.1059    5.8491    3.2340 H         1 ATP        -0.1292
     45 H45        -1.4532    6.9099    1.7401 H         1 ATP         0.2048
@<TRIPOS>BOND
     1    1    2 2
     2    1    3 1
     3    1    4 1
     4    1    8 1
     5    5    6 2
     6    5    7 1
     7    5    8 1
     8    5   12 1
     9    9   10 2
    10    9   11 1
    11    9   12 1
    12    9   13 1
    13   11   32 1
    14   13   14 1
    15   14   15 1
    16   14   33 1
    17   14   34 1
    18   15   16 1
    19   15   17 1
    20   15   35 1
    21   16   21 1
    22   17   18 1
    23   17   19 1
    24   17   36 1
    25   18   37 1
    26   19   20 1
    27   19   21 1
    28   19   38 1
    29   20   39 1
    30   21   22 1
    31   21   40 1
    32   22   23 ar
    33   22   31 ar
    34   23   24 ar
    35   23   41 1
    36   24   25 ar
    37   25   26 ar
    38   25   31 ar
    39   26   27 1
    40   26   28 ar
    41   27   42 1
    42   27   43 1
    43   28   29 ar
    44   28   45 1
    45   29   30 ar
    46   29   44 1
    47   30   31 ar
@<TRIPOS>SUBSTRUCTURE
     1 ATP         1 GROUP 0 A     ****
@<TRIPOS>MOLECULE
[[[5-(6-amino-1,8-dihydropurine-6,8-diylium-7-id-9-yl)-3,4-dihydroxy-tetrahydrofuran-2-yl]methoxy-hydroxy-phosphoryl]oxy-oxido-phosphoryl] phosphate
   45    47     1     0     0
SMALL
USER_CHARGES

@<TRIPOS>ATOM
      1 PG          2.7009   -5.1304   -3.6097 P.3       1 ATP        -1.1921
      2 O1G         1.7838   -5.9606   -4.5015 O.co2     1 ATP         0.3195
      3 O2G         3.8675   -5.9072   -3.0093 O.co2     1 ATP         0.3195
      4 O3G         1.9648   -4.2429   -2.6112 O.co2     1 ATP         0.3195
      5 PB          2.7801   -2.9106   -5.6174 P.3       1 ATP        -1.1062
      6 O1B         3.7612   -2.6239   -6.7322 O.co2     1 ATP         0.3195
      7 O2B         1.3456   -3.2829   -5.9212 O.co2     1 ATP         0.3195
      8 O3B         3.4098   -4.0560   -4.6388 O.3       1 ATP         0.4672
      9 PA          4.0065   -0.9377   -3.8013 P.3       1 ATP        -0.9715
     10 O1A         5.0546   -0.3584   -4.7068 O.2       1 ATP         0.2707
     11 O2A         4.5457   -2.0937   -2.8061 O.3       1 ATP         0.0326
     12 O3A         2.7807   -1.6499   -4.5812 O.3       1 ATP         0.4672
     13 O5'         3.2903    0.1346   -2.8241 O.3       1 ATP         0.1618
     14 C5'         2.2816   -0.2918   -1.9206 C.3       1 ATP         0.1504
     15 C4'         2.7248    0.0226   -0.4980 C.3       1 ATP         0.1111
     16 O4'         2.4697    1.4219   -0.2462 O.3       1 ATP        -0.1436
     17 C3'         1.9404   -0.7419    0.5596 C.3       1 ATP         0.1111
     18 O3'         2.7418   -0.8086    1.7389 O.3       1 ATP        -0.2728
     19 C2'         0.7477    0.1630    0.7858 C.3       1 ATP         0.1111
     20 O2'         0.1373   -0.0577    2.0407 O.3       1 ATP        -0.2728
     21 C1'         1.3733    1.5427    0.6747 C.3       1 ATP         0.2693
     22 N9          0.4520    2.5240    0.1767 N.pl3     1 ATP        -0.3222
     23 C8          0.1798    2.8712   -1.2933 C.ar      1 ATP         0.1640
     24 N7         -0.7494    3.8400   -1.3610 N.2       1 ATP        -0.1640
     25 C5         -1.0173    4.0603   -0.0358 C.ar      1 ATP         0.0820
     26 C6         -2.0105    5.0717    0.4241 C.ar      1 ATP         0.1640
     27 N6         -2.6723    5.7982   -0.4628 N.pl3     1 ATP        -0.4916
     28 N1         -2.1445    5.1522    1.7502 N.pl3     1 ATP        -0.4390
     29 C2         -1.3755    4.3143    2.6427 C.ar      1 ATP         0.5691
     30 N3         -0.5075    3.4292    2.2616 N.ar      1 ATP        -0.4283
     31 C4         -0.3667    3.3425    0.9070 C.ar      1 ATP         0.2226
     32 HOA2        4.9401   -2.9052   -3.1909 H         1 ATP         0.2010
     33 H5'1        1.3514    0.2330   -2.1577 H         1 ATP        -0.0393
     34 H5'2        2.1280   -1.3678   -2.0460 H         1 ATP        -0.0393
     35 H4'         3.8040   -0.1399   -0.4044 H         1 ATP        -0.0393
     36 H3'         1.6768   -1.7637    0.2732 H         1 ATP        -0.0393
     37 HO3'        2.2231   -1.2979    2.3952 H         1 ATP         0.2010
     38 H2'         0.0002   -0.0084   -0.0014 H         1 ATP        -0.0393
     39 HO2'       -0.6132    0.5577    2.1063 H         1 ATP         0.2010
     40 H1'         1.7718    1.9211    1.6015 H         1 ATP        -0.0393
     41 H8          0.6089    2.4651   -2.2147 H         1 ATP         0.0000
     42 HN61       -2.5055    5.6680   -1.4503 H         1 ATP         0.2048
     43 HN62       -3.3462    6.4841   -0.1542 H         1 ATP         0.2048
     44 H2         -1.5932    4.4937    3.7066 H         1 ATP        -0.1292
     45 H45        -2.8098    5.8270    2.1160 H         1 ATP         0.2048
@<TRIPOS>BOND
     1    1    2 2
     2    1    3 1
     3    1    4 1
     4    1    8 1
     5    5    6 2
     6    5    7 1
     7    5    8 1
     8    5   12 1
     9    9   10 2
    10    9   11 1
    11    9   12 1
    12    9   13 1
    13   11   32 1
    14   13   14 1
    15   14   15 1
    16   14   33 1
    17   14   34 1
    18   15   16 1
    19   15   17 1
    20   15   35 1
    21   16   21 1
    22   17   18 1
    23   17   19 1
    24   17   36 1
    25   18   37 1
    26   19   20 1
    27   19   21 1
    28   19   38 1
    29   20   39 1
    30   21   22 1
    31   21   40 1
    32   22   23 ar
    33   22   31 ar
    34   23   24 ar
    35   23   41 1
    36   24   25 ar
    37   25   26 ar
    38   25   31 ar
    39   26   27 1
    40   26   28 ar
    41   27   42 1
    42   27   43 1
    43   28   29 ar
    44   28   45 1
    45   29   30 ar
    46   29   44 1
    47   30   31 ar
@<TRIPOS>SUBSTRUCTURE
     1 ATP         1 GROUP 0 A     ****
@<TRIPOS>MOLECULE
[[[5-(6-amino-1,8-dihydropurine-6,8-diylium-7-id-9-yl)-3,4-dihydroxy-tetrahydrofuran-2-yl]methoxy-hydroxy-phosphoryl]oxy-oxido-phosphoryl] phosphate
   45    47     1     0     0
SMALL
USER_CHARGES

@<TRIPOS>ATOM
      1 PG          1.1981   -3.9778   -6.8544 P.3       1 ATP        -1.1921
      2 O1G         0.7752   -3.2128   -8.1040 O.co2     1 ATP         0.3195
      3 O2G         1.7168   -5.3861   -7.1236 O.co2     1 ATP         0.3195
      4 O3G         0.2021   -3.8914   -5.7024 O.co2     1 ATP         0.3195
      5 PB          2.7024   -1.6081   -5.8124 P.3       1 ATP        -1.1062
      6 O1B         4.0953   -1.4370   -5.2485 O.co2     1 ATP         0.3195
      7 O2B         2.1920   -0.7018   -6.9110 O.co2     1 ATP         0.3195
      8 O3B         2.5131   -3.1560   -6.2965 O.3       1 ATP         0.4672
      9 PA          1.5771   -2.4667   -3.2257 P.3       1 ATP        -0.9715
     10 O1A         1.9405   -3.9104   -3.4192 O.2       1 ATP         0.2707
     11 O2A         0.0761   -2.2218   -2.6739 O.3       1 ATP         0.0326
     12 O3A         1.6317   -1.5847   -4.5811 O.3       1 ATP         0.4672
     13 O5'         2.5245   -1.6648   -2.1878 O.3       1 ATP         0.1618
     14 C5'         2.2816   -0.2918   -1.9206 C.3       1 ATP         0.1504
     15 C4'         2.7248    0.0226   -0.4980 C.3       1 ATP         0.1111
     16 O4'         2.4697    1.4219   -0.2462 O.3       1 ATP        -0.1436
     17 C3'         1.9404   -0.7419    0.5596 C.3       1 ATP         0.1111
     18 O3'         2.7418   -0.8086    1.7389 O.3       1 ATP        -0.2728
     19 C2'         0.7477    0.1630    0.7858 C.3       1 ATP         0.1111
     20 O2'         0.1373   -0.0577    2.0407 O.3       1 ATP        -0.2728
     21 C1'         1.3733    1.5427    0.6747 C.3       1 ATP         0.2693
     22 N9          0.4520    2.5240    0.1767 N.pl3     1 ATP        -0.3222
     23 C8          0.1798    2.8712   -1.2933 C.ar      1 ATP         0.1640
     24 N7         -0.7494    3.8400   -1.3610 N.2       1 ATP        -0.1640
     25 C5         -1.0173    4.0603   -0.0358 C.ar      1 ATP         0.0820
     26 C6         -2.0105    5.0717    0.4241 C.ar      1 ATP         0.1640
     27 N6         -2.6723    5.7982   -0.4628 N.pl3     1 ATP        -0.4916
     28 N1         -2.1445    5.1522    1.7502 N.pl3     1 ATP        -0.4390
     29 C2         -1.3755    4.3143    2.6427 C.ar      1 ATP         0.5691
     30 N3         -0.5075    3.4292    2.2616 N.ar      1 ATP        -0.4283
     31 C4         -0.3667    3.3425    0.9070 C.ar      1 ATP         0.2226
     32 HOA2       -0.1792   -2.6042   -1.8075 H         1 ATP         0.2010
     33 H5'1        2.8432    0.3119   -2.6398 H         1 ATP        -0.0393
     34 H5'2        1.2128   -0.0927   -2.0428 H         1 ATP        -0.0393
     35 H4'         3.8040   -0.1399   -0.4044 H         1 ATP        -0.0393
     36 H3'         1.6768   -1.7637    0.2732 H         1 ATP        -0.0393
     37 HO3'        3.5553   -1.2733    1.4913 H         1 ATP         0.2010
     38 H2'         0.0002   -0.0084   -0.0014 H         1 ATP        -0.0393
     39 HO2'       -0.1554   -0.9852    2.0577 H         1 ATP         0.2010
     40 H1'         1.7718    1.9211    1.6015 H         1 ATP        -0.0393
     41 H8          0.6089    2.4651   -2.2147 H         1 ATP         0.0000
     42 HN61       -2.5055    5.6680   -1.4503 H         1 ATP         0.2048
     43 HN62       -3.3462    6.4841   -0.1542 H         1 ATP         0.2048
     44 H2         -1.5932    4.4937    3.7066 H         1 ATP        -0.1292
     45 H45        -2.8098    5.8270    2.1160 H         1 ATP         0.2048
@<TRIPOS>BOND
     1    1    2 2
     2    1    3 1
     3    1    4 1
     4    1    8 1
     5    5    6 2
     6    5    7 1
     7    5    8 1
     8    5   12 1
     9    9   10 2
    10    9   11 1
    11    9   12 1
    12    9   13 1
    13   11   32 1
    14   13   14 1
    15   14   15 1
    16   14   33 1
    17   14   34 1
    18   15   16 1
    19   15   17 1
    20   15   35 1
    21   16   21 1
    22   17   18 1
    23   17   19 1
    24   17   36 1
    25   18   37 1
    26   19   20 1
    27   19   21 1
    28   19   38 1
    29   20   39 1
    30   21   22 1
    31   21   40 1
    32   22   23 ar
    33   22   31 ar
    34   23   24 ar
    35   23   41 1
    36   24   25 ar
    37   25   26 ar
    38   25   31 ar
    39   26   27 1
    40   26   28 ar
    41   27   42 1
    42   27   43 1
    43   28   29 ar
    44   28   45 1
    45   29   30 ar
    46   29   44 1
    47   30   31 ar
@<TRIPOS>SUBSTRUCTURE
     1 ATP         1 GROUP 0 A     ****
@<TRIPOS>MOLECULE
[[[5-(6-amino-1,8-dihydropurine-6,8-diylium-7-id-9-yl)-3,4-dihydroxy-tetrahydrofuran-2-yl]methoxy-hydroxy-phosphoryl]oxy-oxido-phosphoryl] phosphate
   45    47     1     0     0
SMALL
USER_CHARGES

@<TRIPOS>ATOM
      1 PG          6.8979   -0.8584   -0.7738 P.3       1 ATP        -1.1921
      2 O1G         8.2128   -0.5543   -1.4840 O.co2     1 ATP         0.3195
      3 O2G         6.3330    0.3068    0.0313 O.co2     1 ATP         0.3195
      4 O3G         6.8820   -2.1918   -0.0333 O.co2     1 ATP         0.3195
      5 PB          5.7708   -2.1408   -3.2332 P.3       1 ATP        -1.1062
      6 O1B         6.9214   -1.8498   -4.1708 O.co2     1 ATP         0.3195
      7 O2B         5.5661   -3.5262   -2.6609 O.co2     1 ATP         0.3195
      8 O3B         5.8136   -1.0769   -1.9954 O.3       1 ATP         0.4672
      9 PA          2.8586   -2.1486   -3.6952 P.3       1 ATP        -0.9715
     10 O1A         2.6334   -3.6111   -3.9486 O.2       1 ATP         0.2707
     11 O2A         1.9874   -1.1636   -4.6377 O.3       1 ATP         0.0326
     12 O3A         4.3817   -1.6623   -3.9435 O.3       1 ATP         0.4672
     13 O5'         2.5245   -1.6648   -2.1878 O.3       1 ATP         0.1618
     14 C5'         2.2816   -0.2918   -1.9206 C.3       1 ATP         0.1504
     15 C4'         2.7248    0.0226   -0.4980 C.3       1 ATP         0.1111
     16 O4'         2.4697    1.4219   -0.2462 O.3       1 ATP        -0.1436
     17 C3'         1.9404   -0.7419    0.5596 C.3       1 ATP         0.1111
     18 O3'         2.7418   -0.8086    1.7389 O.3       1 ATP        -0.2728
     19 C2'         0.7477    0.1630    0.7858 C.3       1 ATP         0.1111
     20 O2'         0.1373   -0.0577    2.0407 O.3       1 ATP        -0.2728
     21 C1'         1.3733    1.5427    0.6747 C.3       1 ATP         0.2693
     22 N9          0.4520    2.5240    0.1767 N.pl3     1 ATP        -0.3222
     23 C8          0.1798    2.8712   -1.2933 C.ar      1 ATP         0.1640
     24 N7         -0.7494    3.8400   -1.3610 N.2       1 ATP        -0.1640
     25 C5         -1.0173    4.0603   -0.0358 C.ar      1 ATP         0.0820
     26 C6         -2.0105    5.0717    0.4241 C.ar      1 ATP         0.1640
     27 N6         -2.6723    5.7982   -0.4628 N.pl3     1 ATP        -0.4916
     28 N1         -2.1445    5.1522    1.7502 N.pl3     1 ATP        -0.4390
     29 C2         -1.3755    4.3143    2.6427 C.ar      1 ATP         0.5691
     30 N3         -0.5075    3.4292    2.2616 N.ar      1 ATP        -0.4283
     31 C4         -0.3667    3.3425    0.9070 C.ar      1 ATP         0.2226
     32 HOA2        1.0086   -1.2181   -4.6044 H         1 ATP         0.2010
     33 H5'1        2.8432    0.3119   -2.6398 H         1 ATP        -0.0393
     34 H5'2        1.2128   -0.0927   -2.0428 H         1 ATP        -0.0393
     35 H4'         3.8040   -0.1399   -0.4044 H         1 ATP        -0.0393
     36 H3'         1.6768   -1.7637    0.2732 H         1 ATP        -0.0393
     37 HO3'        2.2231   -1.2979    2.3952 H         1 ATP         0.2010
     38 H2'         0.0002   -0.0084   -0.0014 H         1 ATP        -0.0393
     39 HO2'       -0.1554   -0.9852    2.0577 H         1 ATP         0.2010
     40 H1'         1.7718    1.9211    1.6015 H         1 ATP        -0.0393
     41 H8          0.6089    2.4651   -2.2147 H         1 ATP         0.0000
     42 HN61       -2.5055    5.6680   -1.4503 H         1 ATP         0.2048
     43 HN62       -3.3462    6.4841   -0.1542 H         1 ATP         0.2048
     44 H2         -1.5932    4.4937    3.7066 H         1 ATP        -0.1292
     45 H45        -2.8098    5.8270    2.1160 H         1 ATP         0.2048
@<TRIPOS>BOND
     1    1    2 2
     2    1    3 1
     3    1    4 1
     4    1    8 1
     5    5    6 2
     6    5    7 1
     7    5    8 1
     8    5   12 1
     9    9   10 2
    10    9   11 1
    11    9   12 1
    12    9   13 1
    13   11   32 1
    14   13   14 1
    15   14   15 1
    16   14   33 1
    17   14   34 1
    18   15   16 1
    19   15   17 1
    20   15   35 1
    21   16   21 1
    22   17   18 1
    23   17   19 1
    24   17   36 1
    25   18   37 1
    26   19   20 1
    27   19   21 1
    28   19   38 1
    29   20   39 1
    30   21   22 1
    31   21   40 1
    32   22   23 ar
    33   22   31 ar
    34   23   24 ar
    35   23   41 1
    36   24   25 ar
    37   25   26 ar
    38   25   31 ar
    39   26   27 1
    40   26   28 ar
    41   27   42 1
    42   27   43 1
    43   28   29 ar
    44   28   45 1
    45   29   30 ar
    46   29   44 1
    47   30   31 ar
@<TRIPOS>SUBSTRUCTURE
     1 ATP         1 GROUP 0 A     ****
@<TRIPOS>MOLECULE
[[[5-(6-amino-1,8-dihydropurine-6,8-diylium-7-id-9-yl)-3,4-dihydroxy-tetrahydrofuran-2-yl]methoxy-hydroxy-phosphoryl]oxy-oxido-phosphoryl] phosphate
   45    47     1     0     0
SMALL
USER_CHARGES

@<TRIPOS>ATOM
      1 PG          1.7423    3.1902   -7.9541 P.3       1 ATP        -1.1921
      2 O1G         1.5490    4.6877   -7.7405 O.co2     1 ATP         0.3195
      3 O2G         3.0524    2.8157   -8.6384 O.co2     1 ATP         0.3195
      4 O3G         0.5186    2.4771   -8.5205 O.co2     1 ATP         0.3195
      5 PB          0.8690    2.5942   -5.1529 P.3       1 ATP        -1.1062
      6 O1B         0.7149    4.0195   -4.6709 O.co2     1 ATP         0.3195
      7 O2B        -0.3418    1.7542   -5.4950 O.co2     1 ATP         0.3195
      8 O3B         1.8837    2.5743   -6.4321 O.3       1 ATP         0.4672
      9 PA          2.8890    0.6159   -4.3157 P.3       1 ATP        -0.9715
     10 O1A         4.0478    1.0413   -5.1702 O.2       1 ATP         0.2707
     11 O2A         2.0278   -0.6137   -4.9188 O.3       1 ATP         0.0326
     12 O3A         1.7834    1.7734   -4.0790 O.3       1 ATP         0.4672
     13 O5'         3.2903    0.1346   -2.8241 O.3       1 ATP         0.1618
     14 C5'         2.2816   -0.2918   -1.9206 C.3       1 ATP         0.1504
     15 C4'         2.7248    0.0226   -0.4980 C.3       1 ATP         0.1111
     16 O4'         2.4697    1.4219   -0.2462 O.3       1 ATP        -0.1436
     17 C3'         1.9404   -0.7419    0.5596 C.3       1 ATP         0.1111
     18 O3'         2.7418   -0.8086    1.7389 O.3       1 ATP        -0.2728
     19 C2'         0.7477    0.1630    0.7858 C.3       1 ATP         0.1111
     20 O2'         0.1373   -0.0577    2.0407 O.3       1 ATP        -0.2728
     21 C1'         1.3733    1.5427    0.6747 C.3       1 ATP         0.2693
     22 N9          0.4520    2.5240    0.1767 N.pl3     1 ATP        -0.3222
     23 C8          0.5793    3.3338   -1.1209 C.ar      1 ATP         0.1640
     24 N7         -0.4807    4.1508   -1.2458 N.2       1 ATP        -0.1640
     25 C5         -1.1921    3.8572   -0.1126 C.ar      1 ATP         0.0820
     26 C6         -2.4855    4.5203    0.2163 C.ar      1 ATP         0.1640
     27 N6         -2.9873    5.4319   -0.6020 N.pl3     1 ATP        -0.4916
     28 N1         -3.0414    4.1119    1.3596 N.pl3     1 ATP        -0.4390
     29 C2         -2.4169    3.1071    2.1904 C.ar      1 ATP         0.5691
     30 N3         -1.2928    2.5191    1.9210 N.ar      1 ATP        -0.4283
     31 C4         -0.7202    2.9326    0.7534 C.ar      1 ATP         0.2226
     32 HOA2        1.5957   -0.5068   -5.7928 H         1 ATP         0.2010
     33 H5'1        1.3514    0.2330   -2.1577 H         1 ATP        -0.0393
     34 H5'2        2.1280   -1.3678   -2.0460 H         1 ATP        -0.0393
     35 H4'         3.8040   -0.1399   -0.4044 H         1 ATP        -0.0393
     36 H3'         1.6768   -1.7637    0.2732 H         1 ATP        -0.0393
     37 HO3'        2.2231   -1.2979    2.3952 H         1 ATP         0.2010
     38 H2'         0.0002   -0.0084   -0.0014 H         1 ATP        -0.0393
     39 HO2'       -0.1554   -0.9852    2.0577 H         1 ATP         0.2010
     40 H1'         1.7718    1.9211    1.6015 H         1 ATP        -0.0393
     41 H8          1.3565    3.3309   -1.8916 H         1 ATP         0.0000
     42 HN61       -3.8634    5.8832   -0.3817 H         1 ATP         0.2048
     43 HN62       -2.4948    5.6788   -1.4484 H         1 ATP         0.2048
     44 H2         -2.9911    2.8734    3.1000 H         1 ATP        -0.1292
     45 H45        -3.9253    4.5332    1.6302 H         1 ATP         0.2048
@<TRIPOS>BOND
     1    1    2 2
     2    1    3 1
     3    1    4 1
     4    1    8 1
     5    5    6 2
     6    5    7 1
     7    5    8 1
     8    5   12 1
     9    9   10 2
    10    9   11 1
    11    9   12 1
    12    9   13 1
    13   11   32 1
    14   13   14 1
    15   14   15 1
    16   14   33 1
    17   14   34 1
    18   15   16 1
    19   15   17 1
    20   15   35 1
    21   16   21 1
    22   17   18 1
    23   17   19 1
    24   17   36 1
    25   18   37 1
    26   19   20 1
    27   19   21 1
    28   19   38 1
    29   20   39 1
    30   21   22 1
    31   21   40 1
    32   22   23 ar
    33   22   31 ar
    34   23   24 ar
    35   23   41 1
    36   24   25 ar
    37   25   26 ar
    38   25   31 ar
    39   26   27 1
    40   26   28 ar
    41   27   42 1
    42   27   43 1
    43   28   29 ar
    44   28   45 1
    45   29   30 ar
    46   29   44 1
    47   30   31 ar
@<TRIPOS>SUBSTRUCTURE
     1 ATP         1 GROUP 0 A     ****
@<TRIPOS>MOLECULE
[[[5-(6-amino-1,8-dihydropurine-6,8-diylium-7-id-9-yl)-3,4-dihydroxy-tetrahydrofuran-2-yl]methoxy-hydroxy-phosphoryl]oxy-oxido-phosphoryl] phosphate
   45    47     1     0     0
SMALL
USER_CHARGES

@<TRIPOS>ATOM
      1 PG          5.6398   -3.3103   -6.2466 P.3       1 ATP        -1.1921
      2 O1G         6.5503   -2.3947   -7.0579 O.co2     1 ATP         0.3195
      3 O2G         6.0236   -4.7851   -6.2967 O.co2     1 ATP         0.3195
      4 O3G         4.1508   -3.0478   -6.4477 O.co2     1 ATP         0.3195
      5 PB          5.7147   -1.4464   -3.9047 P.3       1 ATP        -1.1062
      6 O1B         5.9639   -1.6554   -2.4276 O.co2     1 ATP         0.3195
      7 O2B         6.4626   -0.3813   -4.6759 O.co2     1 ATP         0.3195
      8 O3B         5.9063   -2.8701   -4.6810 O.3       1 ATP         0.4672
      9 PA          2.8586   -2.1486   -3.6952 P.3       1 ATP        -0.9715
     10 O1A         3.0949   -3.6238   -3.8422 O.2       1 ATP         0.2707
     11 O2A         1.6347   -1.5744   -4.5840 O.3       1 ATP         0.0326
     12 O3A         4.1145   -1.2311   -4.1411 O.3       1 ATP         0.4672
     13 O5'         2.5245   -1.6648   -2.1878 O.3       1 ATP         0.1618
     14 C5'         2.2816   -0.2918   -1.9206 C.3       1 ATP         0.1504
     15 C4'         2.7248    0.0226   -0.4980 C.3       1 ATP         0.1111
     16 O4'         2.4697    1.4219   -0.2462 O.3       1 ATP        -0.1436
     17 C3'         1.9404   -0.7419    0.5596 C.3       1 ATP         0.1111
     18 O3'         2.7418   -0.8086    1.7389 O.3       1 ATP        -0.2728
     19 C2'         0.7477    0.1630    0.7858 C.3       1 ATP         0.1111
     20 O2'         0.1373   -0.0577    2.0407 O.3       1 ATP        -0.2728
     21 C1'         1.3733    1.5427    0.6747 C.3       1 ATP         0.2693
     22 N9          0.4520    2.5240    0.1767 N.pl3     1 ATP        -0.3222
     23 C8          0.1798    2.8712   -1.2933 C.ar      1 ATP         0.1640
     24 N7         -0.7494    3.8400   -1.3610 N.2       1 ATP        -0.1640
     25 C5         -1.0173    4.0603   -0.0358 C.ar      1 ATP         0.0820
     26 C6         -2.0105    5.0717    0.4241 C.ar      1 ATP         0.1640
     27 N6         -2.6723    5.7982   -0.4628 N.pl3     1 ATP        -0.4916
     28 N1         -2.1445    5.1522    1.7502 N.pl3     1 ATP        -0.4390
     29 C2         -1.3755    4.3143    2.6427 C.ar      1 ATP         0.5691
     30 N3         -0.5075    3.4292    2.2616 N.ar      1 ATP        -0.4283
     31 C4         -0.3667    3.3425    0.9070 C.ar      1 ATP         0.2226
     32 HOA2        1.6716   -1.6689   -5.5596 H         1 ATP         0.2010
     33 H5'1        2.8432    0.3119   -2.6398 H         1 ATP        -0.0393
     34 H5'2        1.2128   -0.0927   -2.0428 H         1 ATP        -0.0393
     35 H4'         3.8040   -0.1399   -0.4044 H         1 ATP        -0.0393
     36 H3'         1.6768   -1.7637    0.2732 H         1 ATP        -0.0393
     37 HO3'        2.2231   -1.2979    2.3952 H         1 ATP         0.2010
     38 H2'         0.0002   -0.0084   -0.0014 H         1 ATP        -0.0393
     39 HO2'       -0.6132    0.5577    2.1063 H         1 ATP         0.2010
     40 H1'         1.7718    1.9211    1.6015 H         1 ATP        -0.0393
     41 H8          0.6089    2.4651   -2.2147 H         1 ATP         0.0000
     42 HN61       -2.5055    5.6680   -1.4503 H         1 ATP         0.2048
     43 HN62       -3.3462    6.4841   -0.1542 H         1 ATP         0.2048
     44 H2         -1.5932    4.4937    3.7066 H         1 ATP        -0.1292
     45 H45        -2.8098    5.8270    2.1160 H         1 ATP         0.2048
@<TRIPOS>BOND
     1    1    2 2
     2    1    3 1
     3    1    4 1
     4    1    8 1
     5    5    6 2
     6    5    7 1
     7    5    8 1
     8    5   12 1
     9    9   10 2
    10    9   11 1
    11    9   12 1
    12    9   13 1
    13   11   32 1
    14   13   14 1
    15   14   15 1
    16   14   33 1
    17   14   34 1
    18   15   16 1
    19   15   17 1
    20   15   35 1
    21   16   21 1
    22   17   18 1
    23   17   19 1
    24   17   36 1
    25   18   37 1
    26   19   20 1
    27   19   21 1
    28   19   38 1
    29   20   39 1
    30   21   22 1
    31   21   40 1
    32   22   23 ar
    33   22   31 ar
    34   23   24 ar
    35   23   41 1
    36   24   25 ar
    37   25   26 ar
    38   25   31 ar
    39   26   27 1
    40   26   28 ar
    41   27   42 1
    42   27   43 1
    43   28   29 ar
    44   28   45 1
    45   29   30 ar
    46   29   44 1
    47   30   31 ar
@<TRIPOS>SUBSTRUCTURE
     1 ATP         1 GROUP 0 A     ****
@<TRIPOS>MOLECULE
[[[5-(6-amino-1,8-dihydropurine-6,8-diylium-7-id-9-yl)-3,4-dihydroxy-tetrahydrofuran-2-yl]methoxy-hydroxy-phosphoryl]oxy-oxido-phosphoryl] phosphate
   45    47     1     0     0
SMALL
USER_CHARGES

@<TRIPOS>ATOM
      1 PG          6.6017   -3.4064   -3.7354 P.3       1 ATP        -1.1921
      2 O1G         5.6528   -3.1873   -2.5618 O.co2     1 ATP         0.3195
      3 O2G         6.8831   -4.8710   -4.0525 O.co2     1 ATP         0.3195
      4 O3G         7.8470   -2.5262   -3.7043 O.co2     1 ATP         0.3195
      5 PB          5.1425   -1.3893   -5.3985 P.3       1 ATP        -1.1062
      6 O1B         6.2321   -0.3482   -5.2695 O.co2     1 ATP         0.3195
      7 O2B         4.3320   -1.5124   -6.6700 O.co2     1 ATP         0.3195
      8 O3B         5.7667   -2.8561   -5.0453 O.3       1 ATP         0.4672
      9 PA          2.8586   -2.1486   -3.6952 P.3       1 ATP        -0.9715
     10 O1A         3.0949   -3.6238   -3.8422 O.2       1 ATP         0.2707
     11 O2A         1.6347   -1.5744   -4.5840 O.3       1 ATP         0.0326
     12 O3A         4.1145   -1.2311   -4.1411 O.3       1 ATP         0.4672
     13 O5'         2.5245   -1.6648   -2.1878 O.3       1 ATP         0.1618
     14 C5'         2.2816   -0.2918   -1.9206 C.3       1 ATP         0.1504
     15 C4'         2.7248    0.0226   -0.4980 C.3       1 ATP         0.1111
     16 O4'         2.4697    1.4219   -0.2462 O.3       1 ATP        -0.1436
     17 C3'         1.9404   -0.7419    0.5596 C.3       1 ATP         0.1111
     18 O3'         2.7418   -0.8086    1.7389 O.3       1 ATP        -0.2728
     19 C2'         0.7477    0.1630    0.7858 C.3       1 ATP         0.1111
     20 O2'         0.1373   -0.0577    2.0407 O.3       1 ATP        -0.2728
     21 C1'         1.3733    1.5427    0.6747 C.3       1 ATP         0.2693
     22 N9          0.4520    2.5240    0.1767 N.pl3     1 ATP        -0.3222
     23 C8          0.1798    2.8712   -1.2933 C.ar      1 ATP         0.1640
     24 N7         -0.7494    3.8400   -1.3610 N.2       1 ATP        -0.1640
     25 C5         -1.0173    4.0603   -0.0358 C.ar      1 ATP         0.0820
     26 C6         -2.0105    5.0717    0.4241 C.ar      1 ATP         0.1640
     27 N6         -2.6723    5.7982   -0.4628 N.pl3     1 ATP        -0.4916
     28 N1         -2.1445    5.1522    1.7502 N.pl3     1 ATP        -0.4390
     29 C2         -1.3755    4.3143    2.6427 C.ar      1 ATP         0.5691
     30 N3         -0.5075    3.4292    2.2616 N.ar      1 ATP        -0.4283
     31 C4         -0.3667    3.3425    0.9070 C.ar      1 ATP         0.2226
     32 HOA2        1.6716   -1.6689   -5.5596 H         1 ATP         0.2010
     33 H5'1        2.8432    0.3119   -2.6398 H         1 ATP        -0.0393
     34 H5'2        1.2128   -0.0927   -2.0428 H         1 ATP        -0.0393
     35 H4'         3.8040   -0.1399   -0.4044 H         1 ATP        -0.0393
     36 H3'         1.6768   -1.7637    0.2732 H         1 ATP        -0.0393
     37 HO3'        2.2231   -1.2979    2.3952 H         1 ATP         0.2010
     38 H2'         0.0002   -0.0084   -0.0014 H         1 ATP        -0.0393
     39 HO2'       -0.6132    0.5577    2.1063 H         1 ATP         0.2010
     40 H1'         1.7718    1.9211    1.6015 H         1 ATP        -0.0393
     41 H8          0.6089    2.4651   -2.2147 H         1 ATP         0.0000
     42 HN61       -2.5055    5.6680   -1.4503 H         1 ATP         0.2048
     43 HN62       -3.3462    6.4841   -0.1542 H         1 ATP         0.2048
     44 H2         -1.5932    4.4937    3.7066 H         1 ATP        -0.1292
     45 H45        -2.8098    5.8270    2.1160 H         1 ATP         0.2048
@<TRIPOS>BOND
     1    1    2 2
     2    1    3 1
     3    1    4 1
     4    1    8 1
     5    5    6 2
     6    5    7 1
     7    5    8 1
     8    5   12 1
     9    9   10 2
    10    9   11 1
    11    9   12 1
    12    9   13 1
    13   11   32 1
    14   13   14 1
    15   14   15 1
    16   14   33 1
    17   14   34 1
    18   15   16 1
    19   15   17 1
    20   15   35 1
    21   16   21 1
    22   17   18 1
    23   17   19 1
    24   17   36 1
    25   18   37 1
    26   19   20 1
    27   19   21 1
    28   19   38 1
    29   20   39 1
    30   21   22 1
    31   21   40 1
    32   22   23 ar
    33   22   31 ar
    34   23   24 ar
    35   23   41 1
    36   24   25 ar
    37   25   26 ar
    38   25   31 ar
    39   26   27 1
    40   26   28 ar
    41   27   42 1
    42   27   43 1
    43   28   29 ar
    44   28   45 1
    45   29   30 ar
    46   29   44 1
    47   30   31 ar
@<TRIPOS>SUBSTRUCTURE
     1 ATP         1 GROUP 0 A     ****
@<TRIPOS>MOLECULE
[[[5-(6-amino-1,8-dihydropurine-6,8-diylium-7-id-9-yl)-3,4-dihydroxy-tetrahydrofuran-2-yl]methoxy-hydroxy-phosphoryl]oxy-oxido-phosphoryl] phosphate
   45    47     1     0     0
SMALL
USER_CHARGES

@<TRIPOS>ATOM
      1 PG          0.7826   -2.5828   -7.9554 P.3       1 ATP        -1.1921
      2 O1G         0.8767   -1.4165   -8.9335 O.co2     1 ATP         0.3195
      3 O2G         1.4129   -3.8775   -8.4568 O.co2     1 ATP         0.3195
      4 O3G        -0.5969   -2.7638   -7.3304 O.co2     1 ATP         0.3195
      5 PB          1.6554   -0.8490   -5.6759 P.3       1 ATP        -1.1062
      6 O1B         1.9313    0.4130   -6.4626 O.co2     1 ATP         0.3195
      7 O2B         0.4060   -0.9819   -4.8333 O.co2     1 ATP         0.3195
      8 O3B         1.7305   -2.1299   -6.6857 O.3       1 ATP         0.4672
      9 PA          3.9517   -0.1778   -3.9522 P.3       1 ATP        -0.9715
     10 O1A         4.6801    0.7864   -4.8431 O.2       1 ATP         0.2707
     11 O2A         4.9129   -1.1802   -3.1224 O.3       1 ATP         0.0326
     12 O3A         2.9506   -1.1764   -4.7388 O.3       1 ATP         0.4672
     13 O5'         3.0213    0.5153   -2.8245 O.3       1 ATP         0.1618
     14 C5'         2.2816   -0.2918   -1.9206 C.3       1 ATP         0.1504
     15 C4'         2.7248    0.0226   -0.4980 C.3       1 ATP         0.1111
     16 O4'         2.4697    1.4219   -0.2462 O.3       1 ATP        -0.1436
     17 C3'         1.9404   -0.7419    0.5596 C.3       1 ATP         0.1111
     18 O3'         2.7418   -0.8086    1.7389 O.3       1 ATP        -0.2728
     19 C2'         0.7477    0.1630    0.7858 C.3       1 ATP         0.1111
     20 O2'         0.1373   -0.0577    2.0407 O.3       1 ATP        -0.2728
     21 C1'         1.3733    1.5427    0.6747 C.3       1 ATP         0.2693
     22 N9          0.4520    2.5240    0.1767 N.pl3     1 ATP        -0.3222
     23 C8         -0.3054    2.4845   -1.1576 C.ar      1 ATP         0.1640
     24 N7         -1.0755    3.5806   -1.2691 N.2       1 ATP        -0.1640
     25 C5         -0.8043    4.2306   -0.0942 C.ar      1 ATP         0.0820
     26 C6         -1.4324    5.5335    0.2646 C.ar      1 ATP         0.1640
     27 N6         -2.2885    6.1054   -0.5675 N.pl3     1 ATP        -0.4916
     28 N1         -1.0537    6.0229    1.4478 N.pl3     1 ATP        -0.4390
     29 C2         -0.1096    5.3242    2.2908 C.ar      1 ATP         0.5691
     30 N3          0.4468    4.1904    1.9960 N.ar      1 ATP        -0.4283
     31 C4          0.0631    3.6855    0.7877 C.ar      1 ATP         0.2226
     32 HOA2        5.5708   -0.8011   -2.5015 H         1 ATP         0.2010
     33 H5'1        1.2163   -0.0770   -2.0471 H         1 ATP        -0.0393
     34 H5'2        2.4655   -1.3443   -2.1563 H         1 ATP        -0.0393
     35 H4'         3.8040   -0.1399   -0.4044 H         1 ATP        -0.0393
     36 H3'         1.6768   -1.7637    0.2732 H         1 ATP        -0.0393
     37 HO3'        2.2231   -1.2979    2.3952 H         1 ATP         0.2010
     38 H2'         0.0002   -0.0084   -0.0014 H         1 ATP        -0.0393
     39 HO2'       -0.6132    0.5577    2.1063 H         1 ATP         0.2010
     40 H1'         1.7718    1.9211    1.6015 H         1 ATP        -0.0393
     41 H8         -0.2991    1.7413   -1.9611 H         1 ATP         0.0000
     42 HN61       -2.5167    5.6603   -1.4447 H         1 ATP         0.2048
     43 HN62       -2.7159    6.9882   -0.3270 H         1 ATP         0.2048
     44 H2          0.1059    5.8491    3.2340 H         1 ATP        -0.1292
     45 H45        -1.4532    6.9099    1.7401 H         1 ATP         0.2048
@<TRIPOS>BOND
     1    1    2 2
     2    1    3 1
     3    1    4 1
     4    1    8 1
     5    5    6 2
     6    5    7 1
     7    5    8 1
     8    5   12 1
     9    9   10 2
    10    9   11 1
    11    9   12 1
    12    9   13 1
    13   11   32 1
    14   13   14 1
    15   14   15 1
    16   14   33 1
    17   14   34 1
    18   15   16 1
    19   15   17 1
    20   15   35 1
    21   16   21 1
    22   17   18 1
    23   17   19 1
    24   17   36 1
    25   18   37 1
    26   19   20 1
    27   19   21 1
    28   19   38 1
    29   20   39 1
    30   21   22 1
    31   21   40 1
    32   22   23 ar
    33   22   31 ar
    34   23   24 ar
    35   23   41 1
    36   24   25 ar
    37   25   26 ar
    38   25   31 ar
    39   26   27 1
    40   26   28 ar
    41   27   42 1
    42   27   43 1
    43   28   29 ar
    44   28   45 1
    45   29   30 ar
    46   29   44 1
    47   30   31 ar
@<TRIPOS>SUBSTRUCTURE
     1 ATP         1 GROUP 0 A     ****
@<TRIPOS>MOLECULE
[[[5-(6-amino-1,8-dihydropurine-6,8-diylium-7-id-9-yl)-3,4-dihydroxy-tetrahydrofuran-2-yl]methoxy-hydroxy-phosphoryl]oxy-oxido-phosphoryl] phosphate
   45    47     1     0     0
SMALL
USER_CHARGES

@<TRIPOS>ATOM
      1 PG         -2.5695   -2.6247   -5.2250 P.3       1 ATP        -1.1921
      2 O1G        -2.0591   -4.0318   -5.5167 O.co2     1 ATP         0.3195
      3 O2G        -3.4776   -2.5246   -4.0043 O.co2     1 ATP         0.3195
      4 O3G        -3.0917   -1.8832   -6.4514 O.co2     1 ATP         0.3195
      5 PB          0.1635   -1.4644   -5.6114 P.3       1 ATP        -1.1062
      6 O1B         0.5308   -2.6726   -6.4438 O.co2     1 ATP         0.3195
      7 O2B         0.0434   -0.0942   -6.2412 O.co2     1 ATP         0.3195
      8 O3B        -1.2196   -1.7789   -4.8025 O.3       1 ATP         0.4672
      9 PA          1.5771   -2.4667   -3.2257 P.3       1 ATP        -0.9715
     10 O1A         2.1804   -3.7236   -3.7826 O.2       1 ATP         0.2707
     11 O2A         0.1922   -2.6885   -2.4194 O.3       1 ATP         0.0326
     12 O3A         1.1910   -1.3664   -4.3475 O.3       1 ATP         0.4672
     13 O5'         2.5245   -1.6648   -2.1878 O.3       1 ATP         0.1618
     14 C5'         2.2816   -0.2918   -1.9206 C.3       1 ATP         0.1504
     15 C4'         2.7248    0.0226   -0.4980 C.3       1 ATP         0.1111
     16 O4'         2.4697    1.4219   -0.2462 O.3       1 ATP        -0.1436
     17 C3'         1.9404   -0.7419    0.5596 C.3       1 ATP         0.1111
     18 O3'         2.7418   -0.8086    1.7389 O.3       1 ATP        -0.2728
     19 C2'         0.7477    0.1630    0.7858 C.3       1 ATP         0.1111
     20 O2'         0.1373   -0.0577    2.0407 O.3       1 ATP        -0.2728
     21 C1'         1.3733    1.5427    0.6747 C.3       1 ATP         0.2693
     22 N9          0.4520    2.5240    0.1767 N.pl3     1 ATP        -0.3222
     23 C8          0.1798    2.8712   -1.2933 C.ar      1 ATP         0.1640
     24 N7         -0.7494    3.8400   -1.3610 N.2       1 ATP        -0.1640
     25 C5         -1.0173    4.0603   -0.0358 C.ar      1 ATP         0.0820
     26 C6         -2.0105    5.0717    0.4241 C.ar      1 ATP         0.1640
     27 N6         -2.6723    5.7982   -0.4628 N.pl3     1 ATP        -0.4916
     28 N1         -2.1445    5.1522    1.7502 N.pl3     1 ATP        -0.4390
     29 C2         -1.3755    4.3143    2.6427 C.ar      1 ATP         0.5691
     30 N3         -0.5075    3.4292    2.2616 N.ar      1 ATP        -0.4283
     31 C4         -0.3667    3.3425    0.9070 C.ar      1 ATP         0.2226
     32 HOA2        0.1907   -3.2709   -1.6301 H         1 ATP         0.2010
     33 H5'1        2.8432    0.3119   -2.6398 H         1 ATP        -0.0393
     34 H5'2        1.2128   -0.0927   -2.0428 H         1 ATP        -0.0393
     35 H4'         3.8040   -0.1399   -0.4044 H         1 ATP        -0.0393
     36 H3'         1.6768   -1.7637    0.2732 H         1 ATP        -0.0393
     37 HO3'        2.2231   -1.2979    2.3952 H         1 ATP         0.2010
     38 H2'         0.0002   -0.0084   -0.0014 H         1 ATP        -0.0393
     39 HO2'       -0.1554   -0.9852    2.0577 H         1 ATP         0.2010
     40 H1'         1.7718    1.9211    1.6015 H         1 ATP        -0.0393
     41 H8          0.6089    2.4651   -2.2147 H         1 ATP         0.0000
     42 HN61       -2.5055    5.6680   -1.4503 H         1 ATP         0.2048
     43 HN62       -3.3462    6.4841   -0.1542 H         1 ATP         0.2048
     44 H2         -1.5932    4.4937    3.7066 H         1 ATP        -0.1292
     45 H45        -2.8098    5.8270    2.1160 H         1 ATP         0.2048
@<TRIPOS>BOND
     1    1    2 2
     2    1    3 1
     3    1    4 1
     4    1    8 1
     5    5    6 2
     6    5    7 1
     7    5    8 1
     8    5   12 1
     9    9   10 2
    10    9   11 1
    11    9   12 1
    12    9   13 1
    13   11   32 1
    14   13   14 1
    15   14   15 1
    16   14   33 1
    17   14   34 1
    18   15   16 1
    19   15   17 1
    20   15   35 1
    21   16   21 1
    22   17   18 1
    23   17   19 1
    24   17   36 1
    25   18   37 1
    26   19   20 1
    27   19   21 1
    28   19   38 1
    29   20   39 1
    30   21   22 1
    31   21   40 1
    32   22   23 ar
    33   22   31 ar
    34   23   24 ar
    35   23   41 1
    36   24   25 ar
    37   25   26 ar
    38   25   31 ar
    39   26   27 1
    40   26   28 ar
    41   27   42 1
    42   27   43 1
    43   28   29 ar
    44   28   45 1
    45   29   30 ar
    46   29   44 1
    47   30   31 ar
@<TRIPOS>SUBSTRUCTURE
     1 ATP         1 GROUP 0 A     ****
@<TRIPOS>MOLECULE
[[[5-(6-amino-1,8-dihydropurine-6,8-diylium-7-id-9-yl)-3,4-dihydroxy-tetrahydrofuran-2-yl]methoxy-hydroxy-phosphoryl]oxy-oxido-phosphoryl] phosphate
   45    47     1     0     0
SMALL
USER_CHARGES

@<TRIPOS>ATOM
      1 PG          2.2465    0.2606   -7.9796 P.3       1 ATP        -1.1921
      2 O1G         1.3170    0.8226   -6.9092 O.co2     1 ATP         0.3195
      3 O2G         3.0997    1.3085   -8.6859 O.co2     1 ATP         0.3195
      4 O3G         1.5823   -0.7385   -8.9214 O.co2     1 ATP         0.3195
      5 PB          3.1360   -1.9482   -6.1646 P.3       1 ATP        -1.1062
      6 O1B         1.8365   -2.6374   -6.5167 O.co2     1 ATP         0.3195
      7 O2B         4.4386   -2.7167   -6.1299 O.co2     1 ATP         0.3195
      8 O3B         3.3309   -0.6541   -7.1411 O.3       1 ATP         0.4672
      9 PA          3.9517   -0.1778   -3.9522 P.3       1 ATP        -0.9715
     10 O1A         4.6801    0.7864   -4.8431 O.2       1 ATP         0.2707
     11 O2A         4.9129   -1.1802   -3.1224 O.3       1 ATP         0.0326
     12 O3A         2.9506   -1.1764   -4.7388 O.3       1 ATP         0.4672
     13 O5'         3.0213    0.5153   -2.8245 O.3       1 ATP         0.1618
     14 C5'         2.2816   -0.2918   -1.9206 C.3       1 ATP         0.1504
     15 C4'         2.7248    0.0226   -0.4980 C.3       1 ATP         0.1111
     16 O4'         2.4697    1.4219   -0.2462 O.3       1 ATP        -0.1436
     17 C3'         1.9404   -0.7419    0.5596 C.3       1 ATP         0.1111
     18 O3'         2.7418   -0.8086    1.7389 O.3       1 ATP        -0.2728
     19 C2'         0.7477    0.1630    0.7858 C.3       1 ATP         0.1111
     20 O2'         0.1373   -0.0577    2.0407 O.3       1 ATP        -0.2728
     21 C1'         1.3733    1.5427    0.6747 C.3       1 ATP         0.2693
     22 N9          0.4520    2.5240    0.1767 N.pl3     1 ATP        -0.3222
     23 C8          0.1798    2.8712   -1.2933 C.ar      1 ATP         0.1640
     24 N7         -0.7494    3.8400   -1.3610 N.2       1 ATP        -0.1640
     25 C5         -1.0173    4.0603   -0.0358 C.ar      1 ATP         0.0820
     26 C6         -2.0105    5.0717    0.4241 C.ar      1 ATP         0.1640
     27 N6         -2.6723    5.7982   -0.4628 N.pl3     1 ATP        -0.4916
     28 N1         -2.1445    5.1522    1.7502 N.pl3     1 ATP        -0.4390
     29 C2         -1.3755    4.3143    2.6427 C.ar      1 ATP         0.5691
     30 N3         -0.5075    3.4292    2.2616 N.ar      1 ATP        -0.4283
     31 C4         -0.3667    3.3425    0.9070 C.ar      1 ATP         0.2226
     32 HOA2        5.5083   -1.7836   -3.6159 H         1 ATP         0.2010
     33 H5'1        1.2163   -0.0770   -2.0471 H         1 ATP        -0.0393
     34 H5'2        2.4655   -1.3443   -2.1563 H         1 ATP        -0.0393
     35 H4'         3.8040   -0.1399   -0.4044 H         1 ATP        -0.0393
     36 H3'         1.6768   -1.7637    0.2732 H         1 ATP        -0.0393
     37 HO3'        2.2231   -1.2979    2.3952 H         1 ATP         0.2010
     38 H2'         0.0002   -0.0084   -0.0014 H         1 ATP        -0.0393
     39 HO2'       -0.6132    0.5577    2.1063 H         1 ATP         0.2010
     40 H1'         1.7718    1.9211    1.6015 H         1 ATP        -0.0393
     41 H8          0.6089    2.4651   -2.2147 H         1 ATP         0.0000
     42 HN61       -2.5055    5.6680   -1.4503 H         1 ATP         0.2048
     43 HN62       -3.3462    6.4841   -0.1542 H         1 ATP         0.2048
     44 H2         -1.5932    4.4937    3.7066 H         1 ATP        -0.1292
     45 H45        -2.8098    5.8270    2.1160 H         1 ATP         0.2048
@<TRIPOS>BOND
     1    1    2 2
     2    1    3 1
     3    1    4 1
     4    1    8 1
     5    5    6 2
     6    5    7 1
     7    5    8 1
     8    5   12 1
     9    9   10 2
    10    9   11 1
    11    9   12 1
    12    9   13 1
    13   11   32 1
    14   13   14 1
    15   14   15 1
    16   14   33 1
    17   14   34 1
    18   15   16 1
    19   15   17 1
    20   15   35 1
    21   16   21 1
    22   17   18 1
    23   17   19 1
    24   17   36 1
    25   18   37 1
    26   19   20 1
    27   19   21 1
    28   19   38 1
    29   20   39 1
    30   21   22 1
    31   21   40 1
    32   22   23 ar
    33   22   31 ar
    34   23   24 ar
    35   23   41 1
    36   24   25 ar
    37   25   26 ar
    38   25   31 ar
    39   26   27 1
    40   26   28 ar
    41   27   42 1
    42   27   43 1
    43   28   29 ar
    44   28   45 1
    45   29   30 ar
    46   29   44 1
    47   30   31 ar
@<TRIPOS>SUBSTRUCTURE
     1 ATP         1 GROUP 0 A     ****
@<TRIPOS>MOLECULE
[[[5-(6-amino-1,8-dihydropurine-6,8-diylium-7-id-9-yl)-3,4-dihydroxy-tetrahydrofuran-2-yl]methoxy-hydroxy-phosphoryl]oxy-oxido-phosphoryl] phosphate
   45    47     1     0     0
SMALL
USER_CHARGES

@<TRIPOS>ATOM
      1 PG          3.3902    2.9764   -7.5668 P.3       1 ATP        -1.1921
      2 O1G         3.8619    3.5101   -6.2184 O.co2     1 ATP         0.3195
      3 O2G         4.5134    2.5181   -8.4905 O.co2     1 ATP         0.3195
      4 O3G         2.3391    3.8459   -8.2494 O.co2     1 ATP         0.3195
      5 PB          1.2629    1.3228   -6.2612 P.3       1 ATP        -1.1062
      6 O1B         0.4611    2.6011   -6.1575 O.co2     1 ATP         0.3195
      7 O2B         0.6146    0.0334   -6.7148 O.co2     1 ATP         0.3195
      8 O3B         2.5733    1.5938   -7.1970 O.3       1 ATP         0.4672
      9 PA          3.0905   -0.0736   -4.4161 P.3       1 ATP        -0.9715
     10 O1A         4.3593   -0.0335   -5.2176 O.2       1 ATP         0.2707
     11 O2A         2.2625   -1.4578   -4.5415 O.3       1 ATP         0.0326
     12 O3A         2.0091    1.0548   -4.8349 O.3       1 ATP         0.4672
     13 O5'         3.2903    0.1346   -2.8241 O.3       1 ATP         0.1618
     14 C5'         2.2816   -0.2918   -1.9206 C.3       1 ATP         0.1504
     15 C4'         2.7248    0.0226   -0.4980 C.3       1 ATP         0.1111
     16 O4'         2.4697    1.4219   -0.2462 O.3       1 ATP        -0.1436
     17 C3'         1.9404   -0.7419    0.5596 C.3       1 ATP         0.1111
     18 O3'         2.7418   -0.8086    1.7389 O.3       1 ATP        -0.2728
     19 C2'         0.7477    0.1630    0.7858 C.3       1 ATP         0.1111
     20 O2'         0.1373   -0.0577    2.0407 O.3       1 ATP        -0.2728
     21 C1'         1.3733    1.5427    0.6747 C.3       1 ATP         0.2693
     22 N9          0.4520    2.5240    0.1767 N.pl3     1 ATP        -0.3222
     23 C8          0.1798    2.8712   -1.2933 C.ar      1 ATP         0.1640
     24 N7         -0.7494    3.8400   -1.3610 N.2       1 ATP        -0.1640
     25 C5         -1.0173    4.0603   -0.0358 C.ar      1 ATP         0.0820
     26 C6         -2.0105    5.0717    0.4241 C.ar      1 ATP         0.1640
     27 N6         -2.6723    5.7982   -0.4628 N.pl3     1 ATP        -0.4916
     28 N1         -2.1445    5.1522    1.7502 N.pl3     1 ATP        -0.4390
     29 C2         -1.3755    4.3143    2.6427 C.ar      1 ATP         0.5691
     30 N3         -0.5075    3.4292    2.2616 N.ar      1 ATP        -0.4283
     31 C4         -0.3667    3.3425    0.9070 C.ar      1 ATP         0.2226
     32 HOA2        1.9434   -1.7415   -5.4246 H         1 ATP         0.2010
     33 H5'1        1.3514    0.2330   -2.1577 H         1 ATP        -0.0393
     34 H5'2        2.1280   -1.3678   -2.0460 H         1 ATP        -0.0393
     35 H4'         3.8040   -0.1399   -0.4044 H         1 ATP        -0.0393
     36 H3'         1.6768   -1.7637    0.2732 H         1 ATP        -0.0393
     37 HO3'        3.5553   -1.2733    1.4913 H         1 ATP         0.2010
     38 H2'         0.0002   -0.0084   -0.0014 H         1 ATP        -0.0393
     39 HO2'       -0.1554   -0.9852    2.0577 H         1 ATP         0.2010
     40 H1'         1.7718    1.9211    1.6015 H         1 ATP        -0.0393
     41 H8          0.6089    2.4651   -2.2147 H         1 ATP         0.0000
     42 HN61       -2.5055    5.6680   -1.4503 H         1 ATP         0.2048
     43 HN62       -3.3462    6.4841   -0.1542 H         1 ATP         0.2048
     44 H2         -1.5932    4.4937    3.7066 H         1 ATP        -0.1292
     45 H45        -2.8098    5.8270    2.1160 H         1 ATP         0.2048
@<TRIPOS>BOND
     1    1    2 2
     2    1    3 1
     3    1    4 1
     4    1    8 1
     5    5    6 2
     6    5    7 1
     7    5    8 1
     8    5   12 1
     9    9   10 2
    10    9   11 1
    11    9   12 1
    12    9   13 1
    13   11   32 1
    14   13   14 1
    15   14   15 1
    16   14   33 1
    17   14   34 1
    18   15   16 1
    19   15   17 1
    20   15   35 1
    21   16   21 1
    22   17   18 1
    23   17   19 1
    24   17   36 1
    25   18   37 1
    26   19   20 1
    27   19   21 1
    28   19   38 1
    29   20   39 1
    30   21   22 1
    31   21   40 1
    32   22   23 ar
    33   22   31 ar
    34   23   24 ar
    35   23   41 1
    36   24   25 ar
    37   25   26 ar
    38   25   31 ar
    39   26   27 1
    40   26   28 ar
    41   27   42 1
    42   27   43 1
    43   28   29 ar
    44   28   45 1
    45   29   30 ar
    46   29   44 1
    47   30   31 ar
@<TRIPOS>SUBSTRUCTURE
     1 ATP         1 GROUP 0 A     ****
@<TRIPOS>MOLECULE
[[[5-(6-amino-1,8-dihydropurine-6,8-diylium-7-id-9-yl)-3,4-dihydroxy-tetrahydrofuran-2-yl]methoxy-hydroxy-phosphoryl]oxy-oxido-phosphoryl] phosphate
   45    47     1     0     0
SMALL
USER_CHARGES

@<TRIPOS>ATOM
      1 PG          0.9810   -2.3872   -8.3398 P.3       1 ATP        -1.1921
      2 O1G         0.4897   -1.0892   -8.9719 O.co2     1 ATP         0.3195
      3 O2G         2.3582   -2.8372   -8.8150 O.co2     1 ATP         0.3195
      4 O3G        -0.0611   -3.5006   -8.3097 O.co2     1 ATP         0.3195
      5 PB          0.1635   -1.4644   -5.6114 P.3       1 ATP        -1.1062
      6 O1B        -0.2828   -0.0683   -5.9844 O.co2     1 ATP         0.3195
      7 O2B        -0.8474   -2.5532   -5.3263 O.co2     1 ATP         0.3195
      8 O3B         1.1980   -2.0119   -6.7499 O.3       1 ATP         0.4672
      9 PA          1.5771   -2.4667   -3.2257 P.3       1 ATP        -0.9715
     10 O1A         2.1804   -3.7236   -3.7826 O.2       1 ATP         0.2707
     11 O2A         0.1922   -2.6885   -2.4194 O.3       1 ATP         0.0326
     12 O3A         1.1910   -1.3664   -4.3475 O.3       1 ATP         0.4672
     13 O5'         2.5245   -1.6648   -2.1878 O.3       1 ATP         0.1618
     14 C5'         2.2816   -0.2918   -1.9206 C.3       1 ATP         0.1504
     15 C4'         2.7248    0.0226   -0.4980 C.3       1 ATP         0.1111
     16 O4'         2.4697    1.4219   -0.2462 O.3       1 ATP        -0.1436
     17 C3'         1.9404   -0.7419    0.5596 C.3       1 ATP         0.1111
     18 O3'         2.7418   -0.8086    1.7389 O.3       1 ATP        -0.2728
     19 C2'         0.7477    0.1630    0.7858 C.3       1 ATP         0.1111
     20 O2'         0.1373   -0.0577    2.0407 O.3       1 ATP        -0.2728
     21 C1'         1.3733    1.5427    0.6747 C.3       1 ATP         0.2693
     22 N9          0.4520    2.5240    0.1767 N.pl3     1 ATP        -0.3222
     23 C8          0.1798    2.8712   -1.2933 C.ar      1 ATP         0.1640
     24 N7         -0.7494    3.8400   -1.3610 N.2       1 ATP        -0.1640
     25 C5         -1.0173    4.0603   -0.0358 C.ar      1 ATP         0.0820
     26 C6         -2.0105    5.0717    0.4241 C.ar      1 ATP         0.1640
     27 N6         -2.6723    5.7982   -0.4628 N.pl3     1 ATP        -0.4916
     28 N1         -2.1445    5.1522    1.7502 N.pl3     1 ATP        -0.4390
     29 C2         -1.3755    4.3143    2.6427 C.ar      1 ATP         0.5691
     30 N3         -0.5075    3.4292    2.2616 N.ar      1 ATP        -0.4283
     31 C4         -0.3667    3.3425    0.9070 C.ar      1 ATP         0.2226
     32 HOA2        0.1907   -3.2709   -1.6301 H         1 ATP         0.2010
     33 H5'1        2.8432    0.3119   -2.6398 H         1 ATP        -0.0393
     34 H5'2        1.2128   -0.0927   -2.0428 H         1 ATP        -0.0393
     35 H4'         3.8040   -0.1399   -0.4044 H         1 ATP        -0.0393
     36 H3'         1.6768   -1.7637    0.2732 H         1 ATP        -0.0393
     37 HO3'        2.2231   -1.2979    2.3952 H         1 ATP         0.2010
     38 H2'         0.0002   -0.0084   -0.0014 H         1 ATP        -0.0393
     39 HO2'       -0.6132    0.5577    2.1063 H         1 ATP         0.2010
     40 H1'         1.7718    1.9211    1.6015 H         1 ATP        -0.0393
     41 H8          0.6089    2.4651   -2.2147 H         1 ATP         0.0000
     42 HN61       -2.5055    5.6680   -1.4503 H         1 ATP         0.2048
     43 HN62       -3.3462    6.4841   -0.1542 H         1 ATP         0.2048
     44 H2         -1.5932    4.4937    3.7066 H         1 ATP        -0.1292
     45 H45        -2.8098    5.8270    2.1160 H         1 ATP         0.2048
@<TRIPOS>BOND
     1    1    2 2
     2    1    3 1
     3    1    4 1
     4    1    8 1
     5    5    6 2
     6    5    7 1
     7    5    8 1
     8    5   12 1
     9    9   10 2
    10    9   11 1
    11    9   12 1
    12    9   13 1
    13   11   32 1
    14   13   14 1
    15   14   15 1
    16   14   33 1
    17   14   34 1
    18   15   16 1
    19   15   17 1
    20   15   35 1
    21   16   21 1
    22   17   18 1
    23   17   19 1
    24   17   36 1
    25   18   37 1
    26   19   20 1
    27   19   21 1
    28   19   38 1
    29   20   39 1
    30   21   22 1
    31   21   40 1
    32   22   23 ar
    33   22   31 ar
    34   23   24 ar
    35   23   41 1
    36   24   25 ar
    37   25   26 ar
    38   25   31 ar
    39   26   27 1
    40   26   28 ar
    41   27   42 1
    42   27   43 1
    43   28   29 ar
    44   28   45 1
    45   29   30 ar
    46   29   44 1
    47   30   31 ar
@<TRIPOS>SUBSTRUCTURE
     1 ATP         1 GROUP 0 A     ****
@<TRIPOS>MOLECULE
[[[5-(6-amino-1,8-dihydropurine-6,8-diylium-7-id-9-yl)-3,4-dihydroxy-tetrahydrofuran-2-yl]methoxy-hydroxy-phosphoryl]oxy-oxido-phosphoryl] phosphate
   45    47     1     0     0
SMALL
USER_CHARGES

@<TRIPOS>ATOM
      1 PG          1.6301   -3.4760   -7.8999 P.3       1 ATP        -1.1921
      2 O1G         1.3483   -4.8126   -7.2218 O.co2     1 ATP         0.3195
      3 O2G         0.4051   -2.8153   -8.5228 O.co2     1 ATP         0.3195
      4 O3G         2.8605   -3.4804   -8.8014 O.co2     1 ATP         0.3195
      5 PB          3.2644   -2.5449   -5.5706 P.3       1 ATP        -1.1062
      6 O1B         3.0323   -3.7306   -4.6608 O.co2     1 ATP         0.3195
      7 O2B         4.5769   -2.3725   -6.3028 O.co2     1 ATP         0.3195
      8 O3B         2.0545   -2.4713   -6.6645 O.3       1 ATP         0.4672
      9 PA          3.9517   -0.1778   -3.9522 P.3       1 ATP        -0.9715
     10 O1A         4.6801    0.7864   -4.8431 O.2       1 ATP         0.2707
     11 O2A         4.9129   -1.1802   -3.1224 O.3       1 ATP         0.0326
     12 O3A         2.9506   -1.1764   -4.7388 O.3       1 ATP         0.4672
     13 O5'         3.0213    0.5153   -2.8245 O.3       1 ATP         0.1618
     14 C5'         2.2816   -0.2918   -1.9206 C.3       1 ATP         0.1504
     15 C4'         2.7248    0.0226   -0.4980 C.3       1 ATP         0.1111
     16 O4'         2.4697    1.4219   -0.2462 O.3       1 ATP        -0.1436
     17 C3'         1.9404   -0.7419    0.5596 C.3       1 ATP         0.1111
     18 O3'         2.7418   -0.8086    1.7389 O.3       1 ATP        -0.2728
     19 C2'         0.7477    0.1630    0.7858 C.3       1 ATP         0.1111
     20 O2'         0.1373   -0.0577    2.0407 O.3       1 ATP        -0.2728
     21 C1'         1.3733    1.5427    0.6747 C.3       1 ATP         0.2693
     22 N9          0.4520    2.5240    0.1767 N.pl3     1 ATP        -0.3222
     23 C8          0.1798    2.8712   -1.2933 C.ar      1 ATP         0.1640
     24 N7         -0.7494    3.8400   -1.3610 N.2       1 ATP        -0.1640
     25 C5         -1.0173    4.0603   -0.0358 C.ar      1 ATP         0.0820
     26 C6         -2.0105    5.0717    0.4241 C.ar      1 ATP         0.1640
     27 N6         -2.6723    5.7982   -0.4628 N.pl3     1 ATP        -0.4916
     28 N1         -2.1445    5.1522    1.7502 N.pl3     1 ATP        -0.4390
     29 C2         -1.3755    4.3143    2.6427 C.ar      1 ATP         0.5691
     30 N3         -0.5075    3.4292    2.2616 N.ar      1 ATP        -0.4283
     31 C4         -0.3667    3.3425    0.9070 C.ar      1 ATP         0.2226
     32 HOA2        5.5708   -0.8011   -2.5015 H         1 ATP         0.2010
     33 H5'1        1.2163   -0.0770   -2.0471 H         1 ATP        -0.0393
     34 H5'2        2.4655   -1.3443   -2.1563 H         1 ATP        -0.0393
     35 H4'         3.8040   -0.1399   -0.4044 H         1 ATP        -0.0393
     36 H3'         1.6768   -1.7637    0.2732 H         1 ATP        -0.0393
     37 HO3'        2.2231   -1.2979    2.3952 H         1 ATP         0.2010
     38 H2'         0.0002   -0.0084   -0.0014 H         1 ATP        -0.0393
     39 HO2'       -0.6132    0.5577    2.1063 H         1 ATP         0.2010
     40 H1'         1.7718    1.9211    1.6015 H         1 ATP        -0.0393
     41 H8          0.6089    2.4651   -2.2147 H         1 ATP         0.0000
     42 HN61       -2.5055    5.6680   -1.4503 H         1 ATP         0.2048
     43 HN62       -3.3462    6.4841   -0.1542 H         1 ATP         0.2048
     44 H2         -1.5932    4.4937    3.7066 H         1 ATP        -0.1292
     45 H45        -2.8098    5.8270    2.1160 H         1 ATP         0.2048
@<TRIPOS>BOND
     1    1    2 2
     2    1    3 1
     3    1    4 1
     4    1    8 1
     5    5    6 2
     6    5    7 1
     7    5    8 1
     8    5   12 1
     9    9   10 2
    10    9   11 1
    11    9   12 1
    12    9   13 1
    13   11   32 1
    14   13   14 1
    15   14   15 1
    16   14   33 1
    17   14   34 1
    18   15   16 1
    19   15   17 1
    20   15   35 1
    21   16   21 1
    22   17   18 1
    23   17   19 1
    24   17   36 1
    25   18   37 1
    26   19   20 1
    27   19   21 1
    28   19   38 1
    29   20   39 1
    30   21   22 1
    31   21   40 1
    32   22   23 ar
    33   22   31 ar
    34   23   24 ar
    35   23   41 1
    36   24   25 ar
    37   25   26 ar
    38   25   31 ar
    39   26   27 1
    40   26   28 ar
    41   27   42 1
    42   27   43 1
    43   28   29 ar
    44   28   45 1
    45   29   30 ar
    46   29   44 1
    47   30   31 ar
@<TRIPOS>SUBSTRUCTURE
     1 ATP         1 GROUP 0 A     ****
@<TRIPOS>MOLECULE
[[[5-(6-amino-1,8-dihydropurine-6,8-diylium-7-id-9-yl)-3,4-dihydroxy-tetrahydrofuran-2-yl]methoxy-hydroxy-phosphoryl]oxy-oxido-phosphoryl] phosphate
   45    47     1     0     0
SMALL
USER_CHARGES

@<TRIPOS>ATOM
      1 PG          0.3780    4.0310   -7.1815 P.3       1 ATP        -1.1921
      2 O1G        -1.0607    3.5520   -7.3437 O.co2     1 ATP         0.3195
      3 O2G         0.5192    5.3688   -6.4637 O.co2     1 ATP         0.3195
      4 O3G         1.2222    3.9115   -8.4462 O.co2     1 ATP         0.3195
      5 PB          1.2629    1.3228   -6.2612 P.3       1 ATP        -1.1062
      6 O1B        -0.0935    0.6544   -6.2332 O.co2     1 ATP         0.3195
      7 O2B         2.2445    1.0426   -7.3778 O.co2     1 ATP         0.3195
      8 O3B         1.0595    2.9393   -6.1521 O.3       1 ATP         0.4672
      9 PA          3.0905   -0.0736   -4.4161 P.3       1 ATP        -0.9715
     10 O1A         4.3593   -0.0335   -5.2176 O.2       1 ATP         0.2707
     11 O2A         2.2625   -1.4578   -4.5415 O.3       1 ATP         0.0326
     12 O3A         2.0091    1.0548   -4.8349 O.3       1 ATP         0.4672
     13 O5'         3.2903    0.1346   -2.8241 O.3       1 ATP         0.1618
     14 C5'         2.2816   -0.2918   -1.9206 C.3       1 ATP         0.1504
     15 C4'         2.7248    0.0226   -0.4980 C.3       1 ATP         0.1111
     16 O4'         2.4697    1.4219   -0.2462 O.3       1 ATP        -0.1436
     17 C3'         1.9404   -0.7419    0.5596 C.3       1 ATP         0.1111
     18 O3'         2.7418   -0.8086    1.7389 O.3       1 ATP        -0.2728
     19 C2'         0.7477    0.1630    0.7858 C.3       1 ATP         0.1111
     20 O2'         0.1373   -0.0577    2.0407 O.3       1 ATP        -0.2728
     21 C1'         1.3733    1.5427    0.6747 C.3       1 ATP         0.2693
     22 N9          0.4520    2.5240    0.1767 N.pl3     1 ATP        -0.3222
     23 C8          0.1798    2.8712   -1.2933 C.ar      1 ATP         0.1640
     24 N7         -0.7494    3.8400   -1.3610 N.2       1 ATP        -0.1640
     25 C5         -1.0173    4.0603   -0.0358 C.ar      1 ATP         0.0820
     26 C6         -2.0105    5.0717    0.4241 C.ar      1 ATP         0.1640
     27 N6         -2.6723    5.7982   -0.4628 N.pl3     1 ATP        -0.4916
     28 N1         -2.1445    5.1522    1.7502 N.pl3     1 ATP        -0.4390
     29 C2         -1.3755    4.3143    2.6427 C.ar      1 ATP         0.5691
     30 N3         -0.5075    3.4292    2.2616 N.ar      1 ATP        -0.4283
     31 C4         -0.3667    3.3425    0.9070 C.ar      1 ATP         0.2226
     32 HOA2        1.9434   -1.7415   -5.4246 H         1 ATP         0.2010
     33 H5'1        1.3514    0.2330   -2.1577 H         1 ATP        -0.0393
     34 H5'2        2.1280   -1.3678   -2.0460 H         1 ATP        -0.0393
     35 H4'         3.8040   -0.1399   -0.4044 H         1 ATP        -0.0393
     36 H3'         1.6768   -1.7637    0.2732 H         1 ATP        -0.0393
     37 HO3'        3.5553   -1.2733    1.4913 H         1 ATP         0.2010
     38 H2'         0.0002   -0.0084   -0.0014 H         1 ATP        -0.0393
     39 HO2'       -0.1554   -0.9852    2.0577 H         1 ATP         0.2010
     40 H1'         1.7718    1.9211    1.6015 H         1 ATP        -0.0393
     41 H8          0.6089    2.4651   -2.2147 H         1 ATP         0.0000
     42 HN61       -2.5055    5.6680   -1.4503 H         1 ATP         0.2048
     43 HN62       -3.3462    6.4841   -0.1542 H         1 ATP         0.2048
     44 H2         -1.5932    4.4937    3.7066 H         1 ATP        -0.1292
     45 H45        -2.8098    5.8270    2.1160 H         1 ATP         0.2048
@<TRIPOS>BOND
     1    1    2 2
     2    1    3 1
     3    1    4 1
     4    1    8 1
     5    5    6 2
     6    5    7 1
     7    5    8 1
     8    5   12 1
     9    9   10 2
    10    9   11 1
    11    9   12 1
    12    9   13 1
    13   11   32 1
    14   13   14 1
    15   14   15 1
    16   14   33 1
    17   14   34 1
    18   15   16 1
    19   15   17 1
    20   15   35 1
    21   16   21 1
    22   17   18 1
    23   17   19 1
    24   17   36 1
    25   18   37 1
    26   19   20 1
    27   19   21 1
    28   19   38 1
    29   20   39 1
    30   21   22 1
    31   21   40 1
    32   22   23 ar
    33   22   31 ar
    34   23   24 ar
    35   23   41 1
    36   24   25 ar
    37   25   26 ar
    38   25   31 ar
    39   26   27 1
    40   26   28 ar
    41   27   42 1
    42   27   43 1
    43   28   29 ar
    44   28   45 1
    45   29   30 ar
    46   29   44 1
    47   30   31 ar
@<TRIPOS>SUBSTRUCTURE
     1 ATP         1 GROUP 0 A     ****
@<TRIPOS>MOLECULE
[[[5-(6-amino-1,8-dihydropurine-6,8-diylium-7-id-9-yl)-3,4-dihydroxy-tetrahydrofuran-2-yl]methoxy-hydroxy-phosphoryl]oxy-oxido-phosphoryl] phosphate
   45    47     1     0     0
SMALL
USER_CHARGES

@<TRIPOS>ATOM
      1 PG         -1.2667   -1.3455   -6.8478 P.3       1 ATP        -1.1921
      2 O1G        -0.5531   -1.6675   -8.1565 O.co2     1 ATP         0.3195
      3 O2G        -1.7124   -2.5698   -6.0558 O.co2     1 ATP         0.3195
      4 O3G        -2.3321   -0.2606   -6.9681 O.co2     1 ATP         0.3195
      5 PB          0.8082    0.6870   -6.1210 P.3       1 ATP        -1.1062
      6 O1B         1.7437    0.4620   -7.2879 O.co2     1 ATP         0.3195
      7 O2B        -0.1017    1.8949   -6.0762 O.co2     1 ATP         0.3195
      8 O3B        -0.1050   -0.6498   -5.9084 O.3       1 ATP         0.4672
      9 PA          3.0905   -0.0736   -4.4161 P.3       1 ATP        -0.9715
     10 O1A         4.2294    0.4201   -5.2606 O.2       1 ATP         0.2707
     11 O2A         2.7697   -1.6508   -4.5799 O.3       1 ATP         0.0326
     12 O3A         1.6732    0.6374   -4.7382 O.3       1 ATP         0.4672
     13 O5'         3.2903    0.1346   -2.8241 O.3       1 ATP         0.1618
     14 C5'         2.2816   -0.2918   -1.9206 C.3       1 ATP         0.1504
     15 C4'         2.7248    0.0226   -0.4980 C.3       1 ATP         0.1111
     16 O4'         2.4697    1.4219   -0.2462 O.3       1 ATP        -0.1436
     17 C3'         1.9404   -0.7419    0.5596 C.3       1 ATP         0.1111
     18 O3'         2.7418   -0.8086    1.7389 O.3       1 ATP        -0.2728
     19 C2'         0.7477    0.1630    0.7858 C.3       1 ATP         0.1111
     20 O2'         0.1373   -0.0577    2.0407 O.3       1 ATP        -0.2728
     21 C1'         1.3733    1.5427    0.6747 C.3       1 ATP         0.2693
     22 N9          0.4520    2.5240    0.1767 N.pl3     1 ATP        -0.3222
     23 C8          0.5793    3.3338   -1.1209 C.ar      1 ATP         0.1640
     24 N7         -0.4807    4.1508   -1.2458 N.2       1 ATP        -0.1640
     25 C5         -1.1921    3.8572   -0.1126 C.ar      1 ATP         0.0820
     26 C6         -2.4855    4.5203    0.2163 C.ar      1 ATP         0.1640
     27 N6         -2.9873    5.4319   -0.6020 N.pl3     1 ATP        -0.4916
     28 N1         -3.0414    4.1119    1.3596 N.pl3     1 ATP        -0.4390
     29 C2         -2.4169    3.1071    2.1904 C.ar      1 ATP         0.5691
     30 N3         -1.2928    2.5191    1.9210 N.ar      1 ATP        -0.4283
     31 C4         -0.7202    2.9326    0.7534 C.ar      1 ATP         0.2226
     32 HOA2        3.4697   -2.3025   -4.3622 H         1 ATP         0.2010
     33 H5'1        1.3514    0.2330   -2.1577 H         1 ATP        -0.0393
     34 H5'2        2.1280   -1.3678   -2.0460 H         1 ATP        -0.0393
     35 H4'         3.8040   -0.1399   -0.4044 H         1 ATP        -0.0393
     36 H3'         1.6768   -1.7637    0.2732 H         1 ATP        -0.0393
     37 HO3'        3.5553   -1.2733    1.4913 H         1 ATP         0.2010
     38 H2'         0.0002   -0.0084   -0.0014 H         1 ATP        -0.0393
     39 HO2'        0.8091    0.1203    2.7213 H         1 ATP         0.2010
     40 H1'         1.7718    1.9211    1.6015 H         1 ATP        -0.0393
     41 H8          1.3565    3.3309   -1.8916 H         1 ATP         0.0000
     42 HN61       -2.4952    5.6785   -1.4487 H         1 ATP         0.2048
     43 HN62       -3.8637    5.8828   -0.3819 H         1 ATP         0.2048
     44 H2         -2.9911    2.8734    3.1000 H         1 ATP        -0.1292
     45 H45        -3.9253    4.5332    1.6302 H         1 ATP         0.2048
@<TRIPOS>BOND
     1    1    2 2
     2    1    3 1
     3    1    4 1
     4    1    8 1
     5    5    6 2
     6    5    7 1
     7    5    8 1
     8    5   12 1
     9    9   10 2
    10    9   11 1
    11    9   12 1
    12    9   13 1
    13   11   32 1
    14   13   14 1
    15   14   15 1
    16   14   33 1
    17   14   34 1
    18   15   16 1
    19   15   17 1
    20   15   35 1
    21   16   21 1
    22   17   18 1
    23   17   19 1
    24   17   36 1
    25   18   37 1
    26   19   20 1
    27   19   21 1
    28   19   38 1
    29   20   39 1
    30   21   22 1
    31   21   40 1
    32   22   23 ar
    33   22   31 ar
    34   23   24 ar
    35   23   41 1
    36   24   25 ar
    37   25   26 ar
    38   25   31 ar
    39   26   27 1
    40   26   28 ar
    41   27   42 1
    42   27   43 1
    43   28   29 ar
    44   28   45 1
    45   29   30 ar
    46   29   44 1
    47   30   31 ar
@<TRIPOS>SUBSTRUCTURE
     1 ATP         1 GROUP 0 A     ****
@<TRIPOS>MOLECULE
[[[5-(6-amino-1,8-dihydropurine-6,8-diylium-7-id-9-yl)-3,4-dihydroxy-tetrahydrofuran-2-yl]methoxy-hydroxy-phosphoryl]oxy-oxido-phosphoryl] phosphate
   45    47     1     0     0
SMALL
USER_CHARGES

@<TRIPOS>ATOM
      1 PG          1.2277   -4.0986   -6.6509 P.3       1 ATP        -1.1921
      2 O1G         2.2647   -4.1144   -7.7689 O.co2     1 ATP         0.3195
      3 O2G         1.4183   -5.1866   -5.5998 O.co2     1 ATP         0.3195
      4 O3G        -0.2107   -3.9469   -7.1354 O.co2     1 ATP         0.3195
      5 PB          1.4973   -1.1340   -6.3306 P.3       1 ATP        -1.1062
      6 O1B         2.6193   -0.9147   -7.3209 O.co2     1 ATP         0.3195
      7 O2B         0.0718   -0.7646   -6.6770 O.co2     1 ATP         0.3195
      8 O3B         1.5182   -2.6921   -5.8427 O.3       1 ATP         0.4672
      9 PA          3.3423   -0.0257   -4.3151 P.3       1 ATP        -0.9715
     10 O1A         4.1311    0.9234   -5.1701 O.2       1 ATP         0.2707
     11 O2A         4.0498   -1.4615   -4.0799 O.3       1 ATP         0.0326
     12 O3A         1.8928   -0.4118   -4.9217 O.3       1 ATP         0.4672
     13 O5'         3.0213    0.5153   -2.8245 O.3       1 ATP         0.1618
     14 C5'         2.2816   -0.2918   -1.9206 C.3       1 ATP         0.1504
     15 C4'         2.7248    0.0226   -0.4980 C.3       1 ATP         0.1111
     16 O4'         2.4697    1.4219   -0.2462 O.3       1 ATP        -0.1436
     17 C3'         1.9404   -0.7419    0.5596 C.3       1 ATP         0.1111
     18 O3'         2.7418   -0.8086    1.7389 O.3       1 ATP        -0.2728
     19 C2'         0.7477    0.1630    0.7858 C.3       1 ATP         0.1111
     20 O2'         0.1373   -0.0577    2.0407 O.3       1 ATP        -0.2728
     21 C1'         1.3733    1.5427    0.6747 C.3       1 ATP         0.2693
     22 N9          0.4520    2.5240    0.1767 N.pl3     1 ATP        -0.3222
     23 C8         -0.3054    2.4845   -1.1576 C.ar      1 ATP         0.1640
     24 N7         -1.0755    3.5806   -1.2691 N.2       1 ATP        -0.1640
     25 C5         -0.8043    4.2306   -0.0942 C.ar      1 ATP         0.0820
     26 C6         -1.4324    5.5335    0.2646 C.ar      1 ATP         0.1640
     27 N6         -2.2885    6.1054   -0.5675 N.pl3     1 ATP        -0.4916
     28 N1         -1.0537    6.0229    1.4478 N.pl3     1 ATP        -0.4390
     29 C2         -0.1096    5.3242    2.2908 C.ar      1 ATP         0.5691
     30 N3          0.4468    4.1904    1.9960 N.ar      1 ATP        -0.4283
     31 C4          0.0631    3.6855    0.7877 C.ar      1 ATP         0.2226
     32 HOA2        4.9282   -1.4920   -3.6444 H         1 ATP         0.2010
     33 H5'1        1.2163   -0.0770   -2.0471 H         1 ATP        -0.0393
     34 H5'2        2.4655   -1.3443   -2.1563 H         1 ATP        -0.0393
     35 H4'         3.8040   -0.1399   -0.4044 H         1 ATP        -0.0393
     36 H3'         1.6768   -1.7637    0.2732 H         1 ATP        -0.0393
     37 HO3'        3.5553   -1.2733    1.4913 H         1 ATP         0.2010
     38 H2'         0.0002   -0.0084   -0.0014 H         1 ATP        -0.0393
     39 HO2'       -0.1554   -0.9852    2.0577 H         1 ATP         0.2010
     40 H1'         1.7718    1.9211    1.6015 H         1 ATP        -0.0393
     41 H8         -0.2991    1.7413   -1.9611 H         1 ATP         0.0000
     42 HN61       -2.5167    5.6603   -1.4447 H         1 ATP         0.2048
     43 HN62       -2.7159    6.9882   -0.3270 H         1 ATP         0.2048
     44 H2          0.1059    5.8491    3.2340 H         1 ATP        -0.1292
     45 H45        -1.4532    6.9099    1.7401 H         1 ATP         0.2048
@<TRIPOS>BOND
     1    1    2 2
     2    1    3 1
     3    1    4 1
     4    1    8 1
     5    5    6 2
     6    5    7 1
     7    5    8 1
     8    5   12 1
     9    9   10 2
    10    9   11 1
    11    9   12 1
    12    9   13 1
    13   11   32 1
    14   13   14 1
    15   14   15 1
    16   14   33 1
    17   14   34 1
    18   15   16 1
    19   15   17 1
    20   15   35 1
    21   16   21 1
    22   17   18 1
    23   17   19 1
    24   17   36 1
    25   18   37 1
    26   19   20 1
    27   19   21 1
    28   19   38 1
    29   20   39 1
    30   21   22 1
    31   21   40 1
    32   22   23 ar
    33   22   31 ar
    34   23   24 ar
    35   23   41 1
    36   24   25 ar
    37   25   26 ar
    38   25   31 ar
    39   26   27 1
    40   26   28 ar
    41   27   42 1
    42   27   43 1
    43   28   29 ar
    44   28   45 1
    45   29   30 ar
    46   29   44 1
    47   30   31 ar
@<TRIPOS>SUBSTRUCTURE
     1 ATP         1 GROUP 0 A     ****
@<TRIPOS>MOLECULE
[[[5-(6-amino-1,8-dihydropurine-6,8-diylium-7-id-9-yl)-3,4-dihydroxy-tetrahydrofuran-2-yl]methoxy-hydroxy-phosphoryl]oxy-oxido-phosphoryl] phosphate
   45    47     1     0     0
SMALL
USER_CHARGES

@<TRIPOS>ATOM
      1 PG          2.9549   -3.1393   -8.0550 P.3       1 ATP        -1.1921
      2 O1G         2.1401   -2.5365   -9.1945 O.co2     1 ATP         0.3195
      3 O2G         4.4623   -3.1271   -8.2836 O.co2     1 ATP         0.3195
      4 O3G         2.4151   -4.4684   -7.5365 O.co2     1 ATP         0.3195
      5 PB          1.3700   -1.6289   -6.0127 P.3       1 ATP        -1.1062
      6 O1B         0.5124   -0.8231   -6.9630 O.co2     1 ATP         0.3195
      7 O2B         0.8030   -2.8225   -5.2762 O.co2     1 ATP         0.3195
      8 O3B         2.7228   -2.1046   -6.7936 O.3       1 ATP         0.4672
      9 PA          3.4996   -0.6423   -4.2278 P.3       1 ATP        -0.9715
     10 O1A         4.5979   -0.0922   -5.0910 O.2       1 ATP         0.2707
     11 O2A         3.6913   -2.1925   -3.8066 O.3       1 ATP         0.0326
     12 O3A         2.0383   -0.6157   -4.9220 O.3       1 ATP         0.4672
     13 O5'         3.2903    0.1346   -2.8241 O.3       1 ATP         0.1618
     14 C5'         2.2816   -0.2918   -1.9206 C.3       1 ATP         0.1504
     15 C4'         2.7248    0.0226   -0.4980 C.3       1 ATP         0.1111
     16 O4'         2.4697    1.4219   -0.2462 O.3       1 ATP        -0.1436
     17 C3'         1.9404   -0.7419    0.5596 C.3       1 ATP         0.1111
     18 O3'         2.7418   -0.8086    1.7389 O.3       1 ATP        -0.2728
     19 C2'         0.7477    0.1630    0.7858 C.3       1 ATP         0.1111
     20 O2'         0.1373   -0.0577    2.0407 O.3       1 ATP        -0.2728
     21 C1'         1.3733    1.5427    0.6747 C.3       1 ATP         0.2693
     22 N9          0.4520    2.5240    0.1767 N.pl3     1 ATP        -0.3222
     23 C8          0.1798    2.8712   -1.2933 C.ar      1 ATP         0.1640
     24 N7         -0.7494    3.8400   -1.3610 N.2       1 ATP        -0.1640
     25 C5         -1.0173    4.0603   -0.0358 C.ar      1 ATP         0.0820
     26 C6         -2.0105    5.0717    0.4241 C.ar      1 ATP         0.1640
     27 N6         -2.6723    5.7982   -0.4628 N.pl3     1 ATP        -0.4916
     28 N1         -2.1445    5.1522    1.7502 N.pl3     1 ATP        -0.4390
     29 C2         -1.3755    4.3143    2.6427 C.ar      1 ATP         0.5691
     30 N3         -0.5075    3.4292    2.2616 N.ar      1 ATP        -0.4283
     31 C4         -0.3667    3.3425    0.9070 C.ar      1 ATP         0.2226
     32 HOA2        3.7436   -2.8727   -4.5114 H         1 ATP         0.2010
     33 H5'1        1.3514    0.2330   -2.1577 H         1 ATP        -0.0393
     34 H5'2        2.1280   -1.3678   -2.0460 H         1 ATP        -0.0393
     35 H4'         3.8040   -0.1399   -0.4044 H         1 ATP        -0.0393
     36 H3'         1.6768   -1.7637    0.2732 H         1 ATP        -0.0393
     37 HO3'        2.2231   -1.2979    2.3952 H         1 ATP         0.2010
     38 H2'         0.0002   -0.0084   -0.0014 H         1 ATP        -0.0393
     39 HO2'       -0.1554   -0.9852    2.0577 H         1 ATP         0.2010
     40 H1'         1.7718    1.9211    1.6015 H         1 ATP        -0.0393
     41 H8          0.6089    2.4651   -2.2147 H         1 ATP         0.0000
     42 HN61       -3.3458    6.4845   -0.1543 H         1 ATP         0.2048
     43 HN62       -2.5050    5.6683   -1.4502 H         1 ATP         0.2048
     44 H2         -1.5932    4.4937    3.7066 H         1 ATP        -0.1292
     45 H45        -2.8098    5.8270    2.1160 H         1 ATP         0.2048
@<TRIPOS>BOND
     1    1    2 2
     2    1    3 1
     3    1    4 1
     4    1    8 1
     5    5    6 2
     6    5    7 1
     7    5    8 1
     8    5   12 1
     9    9   10 2
    10    9   11 1
    11    9   12 1
    12    9   13 1
    13   11   32 1
    14   13   14 1
    15   14   15 1
    16   14   33 1
    17   14   34 1
    18   15   16 1
    19   15   17 1
    20   15   35 1
    21   16   21 1
    22   17   18 1
    23   17   19 1
    24   17   36 1
    25   18   37 1
    26   19   20 1
    27   19   21 1
    28   19   38 1
    29   20   39 1
    30   21   22 1
    31   21   40 1
    32   22   23 ar
    33   22   31 ar
    34   23   24 ar
    35   23   41 1
    36   24   25 ar
    37   25   26 ar
    38   25   31 ar
    39   26   27 1
    40   26   28 ar
    41   27   42 1
    42   27   43 1
    43   28   29 ar
    44   28   45 1
    45   29   30 ar
    46   29   44 1
    47   30   31 ar
@<TRIPOS>SUBSTRUCTURE
     1 ATP         1 GROUP 0 A     ****
@<TRIPOS>MOLECULE
[[[5-(6-amino-1,8-dihydropurine-6,8-diylium-7-id-9-yl)-3,4-dihydroxy-tetrahydrofuran-2-yl]methoxy-hydroxy-phosphoryl]oxy-oxido-phosphoryl] phosphate
   45    47     1     0     0
SMALL
USER_CHARGES

@<TRIPOS>ATOM
      1 PG          4.3971   -0.2017   -7.7894 P.3       1 ATP        -1.1921
      2 O1G         3.1355   -1.0203   -8.0421 O.co2     1 ATP         0.3195
      3 O2G         4.3402    1.2246   -8.3255 O.co2     1 ATP         0.3195
      4 O3G         5.6938   -0.9368   -8.1133 O.co2     1 ATP         0.3195
      5 PB          4.5188   -1.1155   -4.9408 P.3       1 ATP        -1.1062
      6 O1B         5.1087   -2.4020   -5.4743 O.co2     1 ATP         0.3195
      7 O2B         5.1072   -0.4369   -3.7235 O.co2     1 ATP         0.3195
      8 O3B         4.4480   -0.0227   -6.1519 O.3       1 ATP         0.4672
      9 PA          2.1490   -2.2861   -3.6338 P.3       1 ATP        -0.9715
     10 O1A         2.4557   -3.7477   -3.7869 O.2       1 ATP         0.2707
     11 O2A         0.5916   -1.9026   -3.8458 O.3       1 ATP         0.0326
     12 O3A         2.9212   -1.3352   -4.6909 O.3       1 ATP         0.4672
     13 O5'         2.5245   -1.6648   -2.1878 O.3       1 ATP         0.1618
     14 C5'         2.2816   -0.2918   -1.9206 C.3       1 ATP         0.1504
     15 C4'         2.7248    0.0226   -0.4980 C.3       1 ATP         0.1111
     16 O4'         2.4697    1.4219   -0.2462 O.3       1 ATP        -0.1436
     17 C3'         1.9404   -0.7419    0.5596 C.3       1 ATP         0.1111
     18 O3'         2.7418   -0.8086    1.7389 O.3       1 ATP        -0.2728
     19 C2'         0.7477    0.1630    0.7858 C.3       1 ATP         0.1111
     20 O2'         0.1373   -0.0577    2.0407 O.3       1 ATP        -0.2728
     21 C1'         1.3733    1.5427    0.6747 C.3       1 ATP         0.2693
     22 N9          0.4520    2.5240    0.1767 N.pl3     1 ATP        -0.3222
     23 C8          0.5793    3.3338   -1.1209 C.ar      1 ATP         0.1640
     24 N7         -0.4807    4.1508   -1.2458 N.2       1 ATP        -0.1640
     25 C5         -1.1921    3.8572   -0.1126 C.ar      1 ATP         0.0820
     26 C6         -2.4855    4.5203    0.2163 C.ar      1 ATP         0.1640
     27 N6         -2.9873    5.4319   -0.6020 N.pl3     1 ATP        -0.4916
     28 N1         -3.0414    4.1119    1.3596 N.pl3     1 ATP        -0.4390
     29 C2         -2.4169    3.1071    2.1904 C.ar      1 ATP         0.5691
     30 N3         -1.2928    2.5191    1.9210 N.ar      1 ATP        -0.4283
     31 C4         -0.7202    2.9326    0.7534 C.ar      1 ATP         0.2226
     32 HOA2       -0.0807   -2.3050   -3.2557 H         1 ATP         0.2010
     33 H5'1        2.8432    0.3119   -2.6398 H         1 ATP        -0.0393
     34 H5'2        1.2128   -0.0927   -2.0428 H         1 ATP        -0.0393
     35 H4'         3.8040   -0.1399   -0.4044 H         1 ATP        -0.0393
     36 H3'         1.6768   -1.7637    0.2732 H         1 ATP        -0.0393
     37 HO3'        2.2231   -1.2979    2.3952 H         1 ATP         0.2010
     38 H2'         0.0002   -0.0084   -0.0014 H         1 ATP        -0.0393
     39 HO2'       -0.1554   -0.9852    2.0577 H         1 ATP         0.2010
     40 H1'         1.7718    1.9211    1.6015 H         1 ATP        -0.0393
     41 H8          1.3565    3.3309   -1.8916 H         1 ATP         0.0000
     42 HN61       -2.4952    5.6785   -1.4487 H         1 ATP         0.2048
     43 HN62       -3.8637    5.8828   -0.3819 H         1 ATP         0.2048
     44 H2         -2.9911    2.8734    3.1000 H         1 ATP        -0.1292
     45 H45        -3.9253    4.5332    1.6302 H         1 ATP         0.2048
@<TRIPOS>BOND
     1    1    2 2
     2    1    3 1
     3    1    4 1
     4    1    8 1
     5    5    6 2
     6    5    7 1
     7    5    8 1
     8    5   12 1
     9    9   10 2
    10    9   11 1
    11    9   12 1
    12    9   13 1
    13   11   32 1
    14   13   14 1
    15   14   15 1
    16   14   33 1
    17   14   34 1
    18   15   16 1
    19   15   17 1
    20   15   35 1
    21   16   21 1
    22   17   18 1
    23   17   19 1
    24   17   36 1
    25   18   37 1
    26   19   20 1
    27   19   21 1
    28   19   38 1
    29   20   39 1
    30   21   22 1
    31   21   40 1
    32   22   23 ar
    33   22   31 ar
    34   23   24 ar
    35   23   41 1
    36   24   25 ar
    37   25   26 ar
    38   25   31 ar
    39   26   27 1
    40   26   28 ar
    41   27   42 1
    42   27   43 1
    43   28   29 ar
    44   28   45 1
    45   29   30 ar
    46   29   44 1
    47   30   31 ar
@<TRIPOS>SUBSTRUCTURE
     1 ATP         1 GROUP 0 A     ****
@<TRIPOS>MOLECULE
[[[5-(6-amino-1,8-dihydropurine-6,8-diylium-7-id-9-yl)-3,4-dihydroxy-tetrahydrofuran-2-yl]methoxy-hydroxy-phosphoryl]oxy-oxido-phosphoryl] phosphate
   45    47     1     0     0
SMALL
USER_CHARGES

@<TRIPOS>ATOM
      1 PG          3.5703    2.4245   -7.4367 P.3       1 ATP        -1.1921
      2 O1G         2.4585    3.1642   -8.1730 O.co2     1 ATP         0.3195
      3 O2G         4.9784    2.8903   -7.7908 O.co2     1 ATP         0.3195
      4 O3G         3.4036    0.9085   -7.4148 O.co2     1 ATP         0.3195
      5 PB          2.1261    2.6824   -4.8267 P.3       1 ATP        -1.1062
      6 O1B         2.5582    3.1317   -3.4487 O.co2     1 ATP         0.3195
      7 O2B         0.8877    3.2570   -5.4786 O.co2     1 ATP         0.3195
      8 O3B         3.3782    2.8616   -5.8594 O.3       1 ATP         0.4672
      9 PA          3.0905   -0.0736   -4.4161 P.3       1 ATP        -0.9715
     10 O1A         4.3593   -0.0335   -5.2176 O.2       1 ATP         0.2707
     11 O2A         2.2625   -1.4578   -4.5415 O.3       1 ATP         0.0326
     12 O3A         2.0091    1.0548   -4.8349 O.3       1 ATP         0.4672
     13 O5'         3.2903    0.1346   -2.8241 O.3       1 ATP         0.1618
     14 C5'         2.2816   -0.2918   -1.9206 C.3       1 ATP         0.1504
     15 C4'         2.7248    0.0226   -0.4980 C.3       1 ATP         0.1111
     16 O4'         2.4697    1.4219   -0.2462 O.3       1 ATP        -0.1436
     17 C3'         1.9404   -0.7419    0.5596 C.3       1 ATP         0.1111
     18 O3'         2.7418   -0.8086    1.7389 O.3       1 ATP        -0.2728
     19 C2'         0.7477    0.1630    0.7858 C.3       1 ATP         0.1111
     20 O2'         0.1373   -0.0577    2.0407 O.3       1 ATP        -0.2728
     21 C1'         1.3733    1.5427    0.6747 C.3       1 ATP         0.2693
     22 N9          0.4520    2.5240    0.1767 N.pl3     1 ATP        -0.3222
     23 C8          0.1798    2.8712   -1.2933 C.ar      1 ATP         0.1640
     24 N7         -0.7494    3.8400   -1.3610 N.2       1 ATP        -0.1640
     25 C5         -1.0173    4.0603   -0.0358 C.ar      1 ATP         0.0820
     26 C6         -2.0105    5.0717    0.4241 C.ar      1 ATP         0.1640
     27 N6         -2.6723    5.7982   -0.4628 N.pl3     1 ATP        -0.4916
     28 N1         -2.1445    5.1522    1.7502 N.pl3     1 ATP        -0.4390
     29 C2         -1.3755    4.3143    2.6427 C.ar      1 ATP         0.5691
     30 N3         -0.5075    3.4292    2.2616 N.ar      1 ATP        -0.4283
     31 C4         -0.3667    3.3425    0.9070 C.ar      1 ATP         0.2226
     32 HOA2        2.6929   -2.2949   -4.2658 H         1 ATP         0.2010
     33 H5'1        1.3514    0.2330   -2.1577 H         1 ATP        -0.0393
     34 H5'2        2.1280   -1.3678   -2.0460 H         1 ATP        -0.0393
     35 H4'         3.8040   -0.1399   -0.4044 H         1 ATP        -0.0393
     36 H3'         1.6768   -1.7637    0.2732 H         1 ATP        -0.0393
     37 HO3'        3.5553   -1.2733    1.4913 H         1 ATP         0.2010
     38 H2'         0.0002   -0.0084   -0.0014 H         1 ATP        -0.0393
     39 HO2'        0.8091    0.1203    2.7213 H         1 ATP         0.2010
     40 H1'         1.7718    1.9211    1.6015 H         1 ATP        -0.0393
     41 H8          0.6089    2.4651   -2.2147 H         1 ATP         0.0000
     42 HN61       -2.5055    5.6680   -1.4503 H         1 ATP         0.2048
     43 HN62       -3.3462    6.4841   -0.1542 H         1 ATP         0.2048
     44 H2         -1.5932    4.4937    3.7066 H         1 ATP        -0.1292
     45 H45        -2.8098    5.8270    2.1160 H         1 ATP         0.2048
@<TRIPOS>BOND
     1    1    2 2
     2    1    3 1
     3    1    4 1
     4    1    8 1
     5    5    6 2
     6    5    7 1
     7    5    8 1
     8    5   12 1
     9    9   10 2
    10    9   11 1
    11    9   12 1
    12    9   13 1
    13   11   32 1
    14   13   14 1
    15   14   15 1
    16   14   33 1
    17   14   34 1
    18   15   16 1
    19   15   17 1
    20   15   35 1
    21   16   21 1
    22   17   18 1
    23   17   19 1
    24   17   36 1
    25   18   37 1
    26   19   20 1
    27   19   21 1
    28   19   38 1
    29   20   39 1
    30   21   22 1
    31   21   40 1
    32   22   23 ar
    33   22   31 ar
    34   23   24 ar
    35   23   41 1
    36   24   25 ar
    37   25   26 ar
    38   25   31 ar
    39   26   27 1
    40   26   28 ar
    41   27   42 1
    42   27   43 1
    43   28   29 ar
    44   28   45 1
    45   29   30 ar
    46   29   44 1
    47   30   31 ar
@<TRIPOS>SUBSTRUCTURE
     1 ATP         1 GROUP 0 A     ****
@<TRIPOS>MOLECULE
[[[5-(6-amino-1,8-dihydropurine-6,8-diylium-7-id-9-yl)-3,4-dihydroxy-tetrahydrofuran-2-yl]methoxy-hydroxy-phosphoryl]oxy-oxido-phosphoryl] phosphate
   45    47     1     0     0
SMALL
USER_CHARGES

@<TRIPOS>ATOM
      1 PG          0.0971    0.6336   -7.7035 P.3       1 ATP        -1.1921
      2 O1G         0.9574    1.8916   -7.6495 O.co2     1 ATP         0.3195
      3 O2G         0.2282   -0.1639   -8.9965 O.co2     1 ATP         0.3195
      4 O3G        -1.3424    0.8414   -7.2440 O.co2     1 ATP         0.3195
      5 PB          0.9308   -0.1549   -4.9381 P.3       1 ATP        -1.1062
      6 O1B         1.9328    0.9517   -4.6949 O.co2     1 ATP         0.3195
      7 O2B        -0.4391   -0.1174   -4.2975 O.co2     1 ATP         0.3195
      8 O3B         0.7381   -0.3508   -6.5476 O.3       1 ATP         0.4672
      9 PA          1.5771   -2.4667   -3.2257 P.3       1 ATP        -0.9715
     10 O1A         1.9405   -3.9104   -3.4192 O.2       1 ATP         0.2707
     11 O2A         0.0761   -2.2218   -2.6739 O.3       1 ATP         0.0326
     12 O3A         1.6317   -1.5847   -4.5811 O.3       1 ATP         0.4672
     13 O5'         2.5245   -1.6648   -2.1878 O.3       1 ATP         0.1618
     14 C5'         2.2816   -0.2918   -1.9206 C.3       1 ATP         0.1504
     15 C4'         2.7248    0.0226   -0.4980 C.3       1 ATP         0.1111
     16 O4'         2.4697    1.4219   -0.2462 O.3       1 ATP        -0.1436
     17 C3'         1.9404   -0.7419    0.5596 C.3       1 ATP         0.1111
     18 O3'         2.7418   -0.8086    1.7389 O.3       1 ATP        -0.2728
     19 C2'         0.7477    0.1630    0.7858 C.3       1 ATP         0.1111
     20 O2'         0.1373   -0.0577    2.0407 O.3       1 ATP        -0.2728
     21 C1'         1.3733    1.5427    0.6747 C.3       1 ATP         0.2693
     22 N9          0.4520    2.5240    0.1767 N.pl3     1 ATP        -0.3222
     23 C8          0.1798    2.8712   -1.2933 C.ar      1 ATP         0.1640
     24 N7         -0.7494    3.8400   -1.3610 N.2       1 ATP        -0.1640
     25 C5         -1.0173    4.0603   -0.0358 C.ar      1 ATP         0.0820
     26 C6         -2.0105    5.0717    0.4241 C.ar      1 ATP         0.1640
     27 N6         -2.6723    5.7982   -0.4628 N.pl3     1 ATP        -0.4916
     28 N1         -2.1445    5.1522    1.7502 N.pl3     1 ATP        -0.4390
     29 C2         -1.3755    4.3143    2.6427 C.ar      1 ATP         0.5691
     30 N3         -0.5075    3.4292    2.2616 N.ar      1 ATP        -0.4283
     31 C4         -0.3667    3.3425    0.9070 C.ar      1 ATP         0.2226
     32 HOA2       -0.1792   -2.6042   -1.8075 H         1 ATP         0.2010
     33 H5'1        2.8432    0.3119   -2.6398 H         1 ATP        -0.0393
     34 H5'2        1.2128   -0.0927   -2.0428 H         1 ATP        -0.0393
     35 H4'         3.8040   -0.1399   -0.4044 H         1 ATP        -0.0393
     36 H3'         1.6768   -1.7637    0.2732 H         1 ATP        -0.0393
     37 HO3'        2.2231   -1.2979    2.3952 H         1 ATP         0.2010
     38 H2'         0.0002   -0.0084   -0.0014 H         1 ATP        -0.0393
     39 HO2'       -0.6132    0.5577    2.1063 H         1 ATP         0.2010
     40 H1'         1.7718    1.9211    1.6015 H         1 ATP        -0.0393
     41 H8          0.6089    2.4651   -2.2147 H         1 ATP         0.0000
     42 HN61       -2.5055    5.6680   -1.4503 H         1 ATP         0.2048
     43 HN62       -3.3462    6.4841   -0.1542 H         1 ATP         0.2048
     44 H2         -1.5932    4.4937    3.7066 H         1 ATP        -0.1292
     45 H45        -2.8098    5.8270    2.1160 H         1 ATP         0.2048
@<TRIPOS>BOND
     1    1    2 2
     2    1    3 1
     3    1    4 1
     4    1    8 1
     5    5    6 2
     6    5    7 1
     7    5    8 1
     8    5   12 1
     9    9   10 2
    10    9   11 1
    11    9   12 1
    12    9   13 1
    13   11   32 1
    14   13   14 1
    15   14   15 1
    16   14   33 1
    17   14   34 1
    18   15   16 1
    19   15   17 1
    20   15   35 1
    21   16   21 1
    22   17   18 1
    23   17   19 1
    24   17   36 1
    25   18   37 1
    26   19   20 1
    27   19   21 1
    28   19   38 1
    29   20   39 1
    30   21   22 1
    31   21   40 1
    32   22   23 ar
    33   22   31 ar
    34   23   24 ar
    35   23   41 1
    36   24   25 ar
    37   25   26 ar
    38   25   31 ar
    39   26   27 1
    40   26   28 ar
    41   27   42 1
    42   27   43 1
    43   28   29 ar
    44   28   45 1
    45   29   30 ar
    46   29   44 1
    47   30   31 ar
@<TRIPOS>SUBSTRUCTURE
     1 ATP         1 GROUP 0 A     ****
@<TRIPOS>MOLECULE
[[[5-(6-amino-1,8-dihydropurine-6,8-diylium-7-id-9-yl)-3,4-dihydroxy-tetrahydrofuran-2-yl]methoxy-hydroxy-phosphoryl]oxy-oxido-phosphoryl] phosphate
   45    47     1     0     0
SMALL
USER_CHARGES

@<TRIPOS>ATOM
      1 PG         -1.7294    2.2678   -4.4364 P.3       1 ATP        -1.1921
      2 O1G        -1.5622    3.3853   -5.4605 O.co2     1 ATP         0.3195
      3 O2G        -3.1768    1.9676   -4.0626 O.co2     1 ATP         0.3195
      4 O3G        -0.7866    2.3695   -3.2417 O.co2     1 ATP         0.3195
      5 PB          0.2148    0.5236   -5.9000 P.3       1 ATP        -1.1062
      6 O1B         0.1708   -0.9205   -6.3476 O.co2     1 ATP         0.3195
      7 O2B         0.5977    1.6247   -6.8642 O.co2     1 ATP         0.3195
      8 O3B        -1.2191    0.9122   -5.2225 O.3       1 ATP         0.4672
      9 PA          2.7598    0.3945   -4.4166 P.3       1 ATP        -0.9715
     10 O1A         3.6063    1.3019   -5.2615 O.2       1 ATP         0.2707
     11 O2A         2.9406   -1.1809   -4.7370 O.3       1 ATP         0.0326
     12 O3A         1.1681    0.6348   -4.5802 O.3       1 ATP         0.4672
     13 O5'         3.0213    0.5153   -2.8245 O.3       1 ATP         0.1618
     14 C5'         2.2816   -0.2918   -1.9206 C.3       1 ATP         0.1504
     15 C4'         2.7248    0.0226   -0.4980 C.3       1 ATP         0.1111
     16 O4'         2.4697    1.4219   -0.2462 O.3       1 ATP        -0.1436
     17 C3'         1.9404   -0.7419    0.5596 C.3       1 ATP         0.1111
     18 O3'         2.7418   -0.8086    1.7389 O.3       1 ATP        -0.2728
     19 C2'         0.7477    0.1630    0.7858 C.3       1 ATP         0.1111
     20 O2'         0.1373   -0.0577    2.0407 O.3       1 ATP        -0.2728
     21 C1'         1.3733    1.5427    0.6747 C.3       1 ATP         0.2693
     22 N9          0.4520    2.5240    0.1767 N.pl3     1 ATP        -0.3222
     23 C8          0.5793    3.3338   -1.1209 C.ar      1 ATP         0.1640
     24 N7         -0.4807    4.1508   -1.2458 N.2       1 ATP        -0.1640
     25 C5         -1.1921    3.8572   -0.1126 C.ar      1 ATP         0.0820
     26 C6         -2.4855    4.5203    0.2163 C.ar      1 ATP         0.1640
     27 N6         -2.9873    5.4319   -0.6020 N.pl3     1 ATP        -0.4916
     28 N1         -3.0414    4.1119    1.3596 N.pl3     1 ATP        -0.4390
     29 C2         -2.4169    3.1071    2.1904 C.ar      1 ATP         0.5691
     30 N3         -1.2928    2.5191    1.9210 N.ar      1 ATP        -0.4283
     31 C4         -0.7202    2.9326    0.7534 C.ar      1 ATP         0.2226
     32 HOA2        3.8268   -1.5879   -4.6314 H         1 ATP         0.2010
     33 H5'1        1.2163   -0.0770   -2.0471 H         1 ATP        -0.0393
     34 H5'2        2.4655   -1.3443   -2.1563 H         1 ATP        -0.0393
     35 H4'         3.8040   -0.1399   -0.4044 H         1 ATP        -0.0393
     36 H3'         1.6768   -1.7637    0.2732 H         1 ATP        -0.0393
     37 HO3'        3.5553   -1.2733    1.4913 H         1 ATP         0.2010
     38 H2'         0.0002   -0.0084   -0.0014 H         1 ATP        -0.0393
     39 HO2'        0.8091    0.1203    2.7213 H         1 ATP         0.2010
     40 H1'         1.7718    1.9211    1.6015 H         1 ATP        -0.0393
     41 H8          1.3565    3.3309   -1.8916 H         1 ATP         0.0000
     42 HN61       -2.4952    5.6785   -1.4487 H         1 ATP         0.2048
     43 HN62       -3.8637    5.8828   -0.3819 H         1 ATP         0.2048
     44 H2         -2.9911    2.8734    3.1000 H         1 ATP        -0.1292
     45 H45        -3.9253    4.5332    1.6302 H         1 ATP         0.2048
@<TRIPOS>BOND
     1    1    2 2
     2    1    3 1
     3    1    4 1
     4    1    8 1
     5    5    6 2
     6    5    7 1
     7    5    8 1
     8    5   12 1
     9    9   10 2
    10    9   11 1
    11    9   12 1
    12    9   13 1
    13   11   32 1
    14   13   14 1
    15   14   15 1
    16   14   33 1
    17   14   34 1
    18   15   16 1
    19   15   17 1
    20   15   35 1
    21   16   21 1
    22   17   18 1
    23   17   19 1
    24   17   36 1
    25   18   37 1
    26   19   20 1
    27   19   21 1
    28   19   38 1
    29   20   39 1
    30   21   22 1
    31   21   40 1
    32   22   23 ar
    33   22   31 ar
    34   23   24 ar
    35   23   41 1
    36   24   25 ar
    37   25   26 ar
    38   25   31 ar
    39   26   27 1
    40   26   28 ar
    41   27   42 1
    42   27   43 1
    43   28   29 ar
    44   28   45 1
    45   29   30 ar
    46   29   44 1
    47   30   31 ar
@<TRIPOS>SUBSTRUCTURE
     1 ATP         1 GROUP 0 A     ****
@<TRIPOS>MOLECULE
[[[5-(6-amino-1,8-dihydropurine-6,8-diylium-7-id-9-yl)-3,4-dihydroxy-tetrahydrofuran-2-yl]methoxy-hydroxy-phosphoryl]oxy-oxido-phosphoryl] phosphate
   45    47     1     0     0
SMALL
USER_CHARGES

@<TRIPOS>ATOM
      1 PG          0.4331    1.8357   -5.8426 P.3       1 ATP        -1.1921
      2 O1G         1.6649    2.7270   -5.9606 O.co2     1 ATP         0.3195
      3 O2G        -0.6283    2.0842   -6.9087 O.co2     1 ATP         0.3195
      4 O3G        -0.1222    1.7222   -4.4265 O.co2     1 ATP         0.3195
      5 PB          2.1304   -0.5972   -5.4378 P.3       1 ATP        -1.1062
      6 O1B         2.6526   -1.6116   -6.4308 O.co2     1 ATP         0.3195
      7 O2B         3.0757    0.3213   -4.6954 O.co2     1 ATP         0.3195
      8 O3B         0.9921    0.3195   -6.1658 O.3       1 ATP         0.4672
      9 PA          1.5771   -2.4667   -3.2257 P.3       1 ATP        -0.9715
     10 O1A         2.1804   -3.7236   -3.7826 O.2       1 ATP         0.2707
     11 O2A         0.1922   -2.6885   -2.4194 O.3       1 ATP         0.0326
     12 O3A         1.1910   -1.3664   -4.3475 O.3       1 ATP         0.4672
     13 O5'         2.5245   -1.6648   -2.1878 O.3       1 ATP         0.1618
     14 C5'         2.2816   -0.2918   -1.9206 C.3       1 ATP         0.1504
     15 C4'         2.7248    0.0226   -0.4980 C.3       1 ATP         0.1111
     16 O4'         2.4697    1.4219   -0.2462 O.3       1 ATP        -0.1436
     17 C3'         1.9404   -0.7419    0.5596 C.3       1 ATP         0.1111
     18 O3'         2.7418   -0.8086    1.7389 O.3       1 ATP        -0.2728
     19 C2'         0.7477    0.1630    0.7858 C.3       1 ATP         0.1111
     20 O2'         0.1373   -0.0577    2.0407 O.3       1 ATP        -0.2728
     21 C1'         1.3733    1.5427    0.6747 C.3       1 ATP         0.2693
     22 N9          0.4520    2.5240    0.1767 N.pl3     1 ATP        -0.3222
     23 C8          0.1798    2.8712   -1.2933 C.ar      1 ATP         0.1640
     24 N7         -0.7494    3.8400   -1.3610 N.2       1 ATP        -0.1640
     25 C5         -1.0173    4.0603   -0.0358 C.ar      1 ATP         0.0820
     26 C6         -2.0105    5.0717    0.4241 C.ar      1 ATP         0.1640
     27 N6         -2.6723    5.7982   -0.4628 N.pl3     1 ATP        -0.4916
     28 N1         -2.1445    5.1522    1.7502 N.pl3     1 ATP        -0.4390
     29 C2         -1.3755    4.3143    2.6427 C.ar      1 ATP         0.5691
     30 N3         -0.5075    3.4292    2.2616 N.ar      1 ATP        -0.4283
     31 C4         -0.3667    3.3425    0.9070 C.ar      1 ATP         0.2226
     32 HOA2        0.1907   -3.2709   -1.6301 H         1 ATP         0.2010
     33 H5'1        2.8432    0.3119   -2.6398 H         1 ATP        -0.0393
     34 H5'2        1.2128   -0.0927   -2.0428 H         1 ATP        -0.0393
     35 H4'         3.8040   -0.1399   -0.4044 H         1 ATP        -0.0393
     36 H3'         1.6768   -1.7637    0.2732 H         1 ATP        -0.0393
     37 HO3'        3.5553   -1.2733    1.4913 H         1 ATP         0.2010
     38 H2'         0.0002   -0.0084   -0.0014 H         1 ATP        -0.0393
     39 HO2'       -0.1554   -0.9852    2.0577 H         1 ATP         0.2010
     40 H1'         1.7718    1.9211    1.6015 H         1 ATP        -0.0393
     41 H8          0.6089    2.4651   -2.2147 H         1 ATP         0.0000
     42 HN61       -2.5055    5.6680   -1.4503 H         1 ATP         0.2048
     43 HN62       -3.3462    6.4841   -0.1542 H         1 ATP         0.2048
     44 H2         -1.5932    4.4937    3.7066 H         1 ATP        -0.1292
     45 H45        -2.8098    5.8270    2.1160 H         1 ATP         0.2048
@<TRIPOS>BOND
     1    1    2 2
     2    1    3 1
     3    1    4 1
     4    1    8 1
     5    5    6 2
     6    5    7 1
     7    5    8 1
     8    5   12 1
     9    9   10 2
    10    9   11 1
    11    9   12 1
    12    9   13 1
    13   11   32 1
    14   13   14 1
    15   14   15 1
    16   14   33 1
    17   14   34 1
    18   15   16 1
    19   15   17 1
    20   15   35 1
    21   16   21 1
    22   17   18 1
    23   17   19 1
    24   17   36 1
    25   18   37 1
    26   19   20 1
    27   19   21 1
    28   19   38 1
    29   20   39 1
    30   21   22 1
    31   21   40 1
    32   22   23 ar
    33   22   31 ar
    34   23   24 ar
    35   23   41 1
    36   24   25 ar
    37   25   26 ar
    38   25   31 ar
    39   26   27 1
    40   26   28 ar
    41   27   42 1
    42   27   43 1
    43   28   29 ar
    44   28   45 1
    45   29   30 ar
    46   29   44 1
    47   30   31 ar
@<TRIPOS>SUBSTRUCTURE
     1 ATP         1 GROUP 0 A     ****
@<TRIPOS>MOLECULE
[[[5-(6-amino-1,8-dihydropurine-6,8-diylium-7-id-9-yl)-3,4-dihydroxy-tetrahydrofuran-2-yl]methoxy-hydroxy-phosphoryl]oxy-oxido-phosphoryl] phosphate
   45    47     1     0     0
SMALL
USER_CHARGES

@<TRIPOS>ATOM
      1 PG         -2.2441    2.6121   -5.7935 P.3       1 ATP        -1.1921
      2 O1G        -1.6879    3.9640   -6.2275 O.co2     1 ATP         0.3195
      3 O2G        -2.9127    1.8183   -6.9105 O.co2     1 ATP         0.3195
      4 O3G        -3.0437    2.6535   -4.4952 O.co2     1 ATP         0.3195
      5 PB          0.2677    1.9661   -4.2977 P.3       1 ATP        -1.1062
      6 O1B         1.0690    3.1872   -4.6910 O.co2     1 ATP         0.3195
      7 O2B        -0.3444    1.8493   -2.9192 O.co2     1 ATP         0.3195
      8 O3B        -0.9102    1.7267   -5.4028 O.3       1 ATP         0.4672
      9 PA          2.7598    0.3945   -4.4166 P.3       1 ATP        -0.9715
     10 O1A         3.6063    1.3019   -5.2615 O.2       1 ATP         0.2707
     11 O2A         2.9406   -1.1809   -4.7370 O.3       1 ATP         0.0326
     12 O3A         1.1681    0.6348   -4.5802 O.3       1 ATP         0.4672
     13 O5'         3.0213    0.5153   -2.8245 O.3       1 ATP         0.1618
     14 C5'         2.2816   -0.2918   -1.9206 C.3       1 ATP         0.1504
     15 C4'         2.7248    0.0226   -0.4980 C.3       1 ATP         0.1111
     16 O4'         2.4697    1.4219   -0.2462 O.3       1 ATP        -0.1436
     17 C3'         1.9404   -0.7419    0.5596 C.3       1 ATP         0.1111
     18 O3'         2.7418   -0.8086    1.7389 O.3       1 ATP        -0.2728
     19 C2'         0.7477    0.1630    0.7858 C.3       1 ATP         0.1111
     20 O2'         0.1373   -0.0577    2.0407 O.3       1 ATP        -0.2728
     21 C1'         1.3733    1.5427    0.6747 C.3       1 ATP         0.2693
     22 N9          0.4520    2.5240    0.1767 N.pl3     1 ATP        -0.3222
     23 C8          0.5793    3.3338   -1.1209 C.ar      1 ATP         0.1640
     24 N7         -0.4807    4.1508   -1.2458 N.2       1 ATP        -0.1640
     25 C5         -1.1921    3.8572   -0.1126 C.ar      1 ATP         0.0820
     26 C6         -2.4855    4.5203    0.2163 C.ar      1 ATP         0.1640
     27 N6         -2.9873    5.4319   -0.6020 N.pl3     1 ATP        -0.4916
     28 N1         -3.0414    4.1119    1.3596 N.pl3     1 ATP        -0.4390
     29 C2         -2.4169    3.1071    2.1904 C.ar      1 ATP         0.5691
     30 N3         -1.2928    2.5191    1.9210 N.ar      1 ATP        -0.4283
     31 C4         -0.7202    2.9326    0.7534 C.ar      1 ATP         0.2226
     32 HOA2        3.8268   -1.5879   -4.6314 H         1 ATP         0.2010
     33 H5'1        1.2163   -0.0770   -2.0471 H         1 ATP        -0.0393
     34 H5'2        2.4655   -1.3443   -2.1563 H         1 ATP        -0.0393
     35 H4'         3.8040   -0.1399   -0.4044 H         1 ATP        -0.0393
     36 H3'         1.6768   -1.7637    0.2732 H         1 ATP        -0.0393
     37 HO3'        3.5553   -1.2733    1.4913 H         1 ATP         0.2010
     38 H2'         0.0002   -0.0084   -0.0014 H         1 ATP        -0.0393
     39 HO2'        0.8091    0.1203    2.7213 H         1 ATP         0.2010
     40 H1'         1.7718    1.9211    1.6015 H         1 ATP        -0.0393
     41 H8          1.3565    3.3309   -1.8916 H         1 ATP         0.0000
     42 HN61       -2.4952    5.6785   -1.4487 H         1 ATP         0.2048
     43 HN62       -3.8637    5.8828   -0.3819 H         1 ATP         0.2048
     44 H2         -2.9911    2.8734    3.1000 H         1 ATP        -0.1292
     45 H45        -3.9253    4.5332    1.6302 H         1 ATP         0.2048
@<TRIPOS>BOND
     1    1    2 2
     2    1    3 1
     3    1    4 1
     4    1    8 1
     5    5    6 2
     6    5    7 1
     7    5    8 1
     8    5   12 1
     9    9   10 2
    10    9   11 1
    11    9   12 1
    12    9   13 1
    13   11   32 1
    14   13   14 1
    15   14   15 1
    16   14   33 1
    17   14   34 1
    18   15   16 1
    19   15   17 1
    20   15   35 1
    21   16   21 1
    22   17   18 1
    23   17   19 1
    24   17   36 1
    25   18   37 1
    26   19   20 1
    27   19   21 1
    28   19   38 1
    29   20   39 1
    30   21   22 1
    31   21   40 1
    32   22   23 ar
    33   22   31 ar
    34   23   24 ar
    35   23   41 1
    36   24   25 ar
    37   25   26 ar
    38   25   31 ar
    39   26   27 1
    40   26   28 ar
    41   27   42 1
    42   27   43 1
    43   28   29 ar
    44   28   45 1
    45   29   30 ar
    46   29   44 1
    47   30   31 ar
@<TRIPOS>SUBSTRUCTURE
     1 ATP         1 GROUP 0 A     ****
@<TRIPOS>MOLECULE
[[[5-(6-amino-1,8-dihydropurine-6,8-diylium-7-id-9-yl)-3,4-dihydroxy-tetrahydrofuran-2-yl]methoxy-hydroxy-phosphoryl]oxy-oxido-phosphoryl] phosphate
   45    47     1     0     0
SMALL
USER_CHARGES

@<TRIPOS>ATOM
      1 PG         -2.6913   -0.2922   -5.7074 P.3       1 ATP        -1.1921
      2 O1G        -3.4661   -0.0380   -4.4187 O.co2     1 ATP         0.3195
      3 O2G        -3.1003    0.5999   -6.8744 O.co2     1 ATP         0.3195
      4 O3G        -2.5509   -1.7669   -6.0711 O.co2     1 ATP         0.3195
      5 PB         -0.0882   -0.3457   -4.2292 P.3       1 ATP        -1.1062
      6 O1B        -0.6156    0.0122   -2.8576 O.co2     1 ATP         0.3195
      7 O2B         0.3033   -1.7681   -4.5644 O.co2     1 ATP         0.3195
      8 O3B        -1.1495    0.1723   -5.3568 O.3       1 ATP         0.4672
      9 PA          2.7598    0.3945   -4.4166 P.3       1 ATP        -0.9715
     10 O1A         3.6063    1.3019   -5.2615 O.2       1 ATP         0.2707
     11 O2A         2.9406   -1.1809   -4.7370 O.3       1 ATP         0.0326
     12 O3A         1.1681    0.6348   -4.5802 O.3       1 ATP         0.4672
     13 O5'         3.0213    0.5153   -2.8245 O.3       1 ATP         0.1618
     14 C5'         2.2816   -0.2918   -1.9206 C.3       1 ATP         0.1504
     15 C4'         2.7248    0.0226   -0.4980 C.3       1 ATP         0.1111
     16 O4'         2.4697    1.4219   -0.2462 O.3       1 ATP        -0.1436
     17 C3'         1.9404   -0.7419    0.5596 C.3       1 ATP         0.1111
     18 O3'         2.7418   -0.8086    1.7389 O.3       1 ATP        -0.2728
     19 C2'         0.7477    0.1630    0.7858 C.3       1 ATP         0.1111
     20 O2'         0.1373   -0.0577    2.0407 O.3       1 ATP        -0.2728
     21 C1'         1.3733    1.5427    0.6747 C.3       1 ATP         0.2693
     22 N9          0.4520    2.5240    0.1767 N.pl3     1 ATP        -0.3222
     23 C8          0.1798    2.8712   -1.2933 C.ar      1 ATP         0.1640
     24 N7         -0.7494    3.8400   -1.3610 N.2       1 ATP        -0.1640
     25 C5         -1.0173    4.0603   -0.0358 C.ar      1 ATP         0.0820
     26 C6         -2.0105    5.0717    0.4241 C.ar      1 ATP         0.1640
     27 N6         -2.6723    5.7982   -0.4628 N.pl3     1 ATP        -0.4916
     28 N1         -2.1445    5.1522    1.7502 N.pl3     1 ATP        -0.4390
     29 C2         -1.3755    4.3143    2.6427 C.ar      1 ATP         0.5691
     30 N3         -0.5075    3.4292    2.2616 N.ar      1 ATP        -0.4283
     31 C4         -0.3667    3.3425    0.9070 C.ar      1 ATP         0.2226
     32 HOA2        2.7360   -1.5082   -5.6388 H         1 ATP         0.2010
     33 H5'1        1.2163   -0.0770   -2.0471 H         1 ATP        -0.0393
     34 H5'2        2.4655   -1.3443   -2.1563 H         1 ATP        -0.0393
     35 H4'         3.8040   -0.1399   -0.4044 H         1 ATP        -0.0393
     36 H3'         1.6768   -1.7637    0.2732 H         1 ATP        -0.0393
     37 HO3'        2.2231   -1.2979    2.3952 H         1 ATP         0.2010
     38 H2'         0.0002   -0.0084   -0.0014 H         1 ATP        -0.0393
     39 HO2'       -0.6132    0.5577    2.1063 H         1 ATP         0.2010
     40 H1'         1.7718    1.9211    1.6015 H         1 ATP        -0.0393
     41 H8          0.6089    2.4651   -2.2147 H         1 ATP         0.0000
     42 HN61       -2.5055    5.6680   -1.4503 H         1 ATP         0.2048
     43 HN62       -3.3462    6.4841   -0.1542 H         1 ATP         0.2048
     44 H2         -1.5932    4.4937    3.7066 H         1 ATP        -0.1292
     45 H45        -2.8098    5.8270    2.1160 H         1 ATP         0.2048
@<TRIPOS>BOND
     1    1    2 2
     2    1    3 1
     3    1    4 1
     4    1    8 1
     5    5    6 2
     6    5    7 1
     7    5    8 1
     8    5   12 1
     9    9   10 2
    10    9   11 1
    11    9   12 1
    12    9   13 1
    13   11   32 1
    14   13   14 1
    15   14   15 1
    16   14   33 1
    17   14   34 1
    18   15   16 1
    19   15   17 1
    20   15   35 1
    21   16   21 1
    22   17   18 1
    23   17   19 1
    24   17   36 1
    25   18   37 1
    26   19   20 1
    27   19   21 1
    28   19   38 1
    29   20   39 1
    30   21   22 1
    31   21   40 1
    32   22   23 ar
    33   22   31 ar
    34   23   24 ar
    35   23   41 1
    36   24   25 ar
    37   25   26 ar
    38   25   31 ar
    39   26   27 1
    40   26   28 ar
    41   27   42 1
    42   27   43 1
    43   28   29 ar
    44   28   45 1
    45   29   30 ar
    46   29   44 1
    47   30   31 ar
@<TRIPOS>SUBSTRUCTURE
     1 ATP         1 GROUP 0 A     ****
@<TRIPOS>MOLECULE
[[[5-(6-amino-1,8-dihydropurine-6,8-diylium-7-id-9-yl)-3,4-dihydroxy-tetrahydrofuran-2-yl]methoxy-hydroxy-phosphoryl]oxy-oxido-phosphoryl] phosphate
   45    47     1     0     0
SMALL
USER_CHARGES

@<TRIPOS>ATOM
      1 PG         -1.1795   -1.6463   -2.4596 P.3       1 ATP        -1.1921
      2 O1G        -0.5706   -2.8710   -1.7852 O.co2     1 ATP         0.3195
      3 O2G        -1.5404   -0.5150   -1.5032 O.co2     1 ATP         0.3195
      4 O3G        -2.2675   -1.9707   -3.4783 O.co2     1 ATP         0.3195
      5 PB          0.9169   -1.6787   -4.5970 P.3       1 ATP        -1.1062
      6 O1B         1.7572   -2.8125   -4.0529 O.co2     1 ATP         0.3195
      7 O2B        -0.0043   -1.8915   -5.7780 O.co2     1 ATP         0.3195
      8 O3B         0.0445   -1.0331   -3.3771 O.3       1 ATP         0.4672
      9 PA          3.3423   -0.0257   -4.3151 P.3       1 ATP        -0.9715
     10 O1A         4.1311    0.9234   -5.1701 O.2       1 ATP         0.2707
     11 O2A         4.0498   -1.4615   -4.0799 O.3       1 ATP         0.0326
     12 O3A         1.8928   -0.4118   -4.9217 O.3       1 ATP         0.4672
     13 O5'         3.0213    0.5153   -2.8245 O.3       1 ATP         0.1618
     14 C5'         2.2816   -0.2918   -1.9206 C.3       1 ATP         0.1504
     15 C4'         2.7248    0.0226   -0.4980 C.3       1 ATP         0.1111
     16 O4'         2.4697    1.4219   -0.2462 O.3       1 ATP        -0.1436
     17 C3'         1.9404   -0.7419    0.5596 C.3       1 ATP         0.1111
     18 O3'         2.7418   -0.8086    1.7389 O.3       1 ATP        -0.2728
     19 C2'         0.7477    0.1630    0.7858 C.3       1 ATP         0.1111
     20 O2'         0.1373   -0.0577    2.0407 O.3       1 ATP        -0.2728
     21 C1'         1.3733    1.5427    0.6747 C.3       1 ATP         0.2693
     22 N9          0.4520    2.5240    0.1767 N.pl3     1 ATP        -0.3222
     23 C8          0.1798    2.8712   -1.2933 C.ar      1 ATP         0.1640
     24 N7         -0.7494    3.8400   -1.3610 N.2       1 ATP        -0.1640
     25 C5         -1.0173    4.0603   -0.0358 C.ar      1 ATP         0.0820
     26 C6         -2.0105    5.0717    0.4241 C.ar      1 ATP         0.1640
     27 N6         -2.6723    5.7982   -0.4628 N.pl3     1 ATP        -0.4916
     28 N1         -2.1445    5.1522    1.7502 N.pl3     1 ATP        -0.4390
     29 C2         -1.3755    4.3143    2.6427 C.ar      1 ATP         0.5691
     30 N3         -0.5075    3.4292    2.2616 N.ar      1 ATP        -0.4283
     31 C4         -0.3667    3.3425    0.9070 C.ar      1 ATP         0.2226
     32 HOA2        4.9282   -1.4920   -3.6444 H         1 ATP         0.2010
     33 H5'1        1.2163   -0.0770   -2.0471 H         1 ATP        -0.0393
     34 H5'2        2.4655   -1.3443   -2.1563 H         1 ATP        -0.0393
     35 H4'         3.8040   -0.1399   -0.4044 H         1 ATP        -0.0393
     36 H3'         1.6768   -1.7637    0.2732 H         1 ATP        -0.0393
     37 HO3'        2.2231   -1.2979    2.3952 H         1 ATP         0.2010
     38 H2'         0.0002   -0.0084   -0.0014 H         1 ATP        -0.0393
     39 HO2'       -0.6132    0.5577    2.1063 H         1 ATP         0.2010
     40 H1'         1.7718    1.9211    1.6015 H         1 ATP        -0.0393
     41 H8          0.6089    2.4651   -2.2147 H         1 ATP         0.0000
     42 HN61       -2.5055    5.6680   -1.4503 H         1 ATP         0.2048
     43 HN62       -3.3462    6.4841   -0.1542 H         1 ATP         0.2048
     44 H2         -1.5932    4.4937    3.7066 H         1 ATP        -0.1292
     45 H45        -2.8098    5.8270    2.1160 H         1 ATP         0.2048
@<TRIPOS>BOND
     1    1    2 2
     2    1    3 1
     3    1    4 1
     4    1    8 1
     5    5    6 2
     6    5    7 1
     7    5    8 1
     8    5   12 1
     9    9   10 2
    10    9   11 1
    11    9   12 1
    12    9   13 1
    13   11   32 1
    14   13   14 1
    15   14   15 1
    16   14   33 1
    17   14   34 1
    18   15   16 1
    19   15   17 1
    20   15   35 1
    21   16   21 1
    22   17   18 1
    23   17   19 1
    24   17   36 1
    25   18   37 1
    26   19   20 1
    27   19   21 1
    28   19   38 1
    29   20   39 1
    30   21   22 1
    31   21   40 1
    32   22   23 ar
    33   22   31 ar
    34   23   24 ar
    35   23   41 1
    36   24   25 ar
    37   25   26 ar
    38   25   31 ar
    39   26   27 1
    40   26   28 ar
    41   27   42 1
    42   27   43 1
    43   28   29 ar
    44   28   45 1
    45   29   30 ar
    46   29   44 1
    47   30   31 ar
@<TRIPOS>SUBSTRUCTURE
     1 ATP         1 GROUP 0 A     ****
@<TRIPOS>MOLECULE
[[[5-(6-amino-1,8-dihydropurine-6,8-diylium-7-id-9-yl)-3,4-dihydroxy-tetrahydrofuran-2-yl]methoxy-hydroxy-phosphoryl]oxy-oxido-phosphoryl] phosphate
   45    47     1     0     0
SMALL
USER_CHARGES

@<TRIPOS>ATOM
      1 PG         -0.3345    2.3529   -7.0242 P.3       1 ATP        -1.1921
      2 O1G        -0.4960    3.4719   -6.0009 O.co2     1 ATP         0.3195
      3 O2G         0.4257    2.7557   -8.2831 O.co2     1 ATP         0.3195
      4 O3G        -1.6122    1.5648   -7.2944 O.co2     1 ATP         0.3195
      5 PB          0.4849    0.4129   -4.8960 P.3       1 ATP        -1.1062
      6 O1B         0.5063    1.3747   -3.7289 O.co2     1 ATP         0.3195
      7 O2B        -0.6516   -0.5698   -5.0724 O.co2     1 ATP         0.3195
      8 O3B         0.6500    1.2589   -6.2828 O.3       1 ATP         0.4672
      9 PA          3.3423   -0.0257   -4.3151 P.3       1 ATP        -0.9715
     10 O1A         4.1311    0.9234   -5.1701 O.2       1 ATP         0.2707
     11 O2A         4.0498   -1.4615   -4.0799 O.3       1 ATP         0.0326
     12 O3A         1.8928   -0.4118   -4.9217 O.3       1 ATP         0.4672
     13 O5'         3.0213    0.5153   -2.8245 O.3       1 ATP         0.1618
     14 C5'         2.2816   -0.2918   -1.9206 C.3       1 ATP         0.1504
     15 C4'         2.7248    0.0226   -0.4980 C.3       1 ATP         0.1111
     16 O4'         2.4697    1.4219   -0.2462 O.3       1 ATP        -0.1436
     17 C3'         1.9404   -0.7419    0.5596 C.3       1 ATP         0.1111
     18 O3'         2.7418   -0.8086    1.7389 O.3       1 ATP        -0.2728
     19 C2'         0.7477    0.1630    0.7858 C.3       1 ATP         0.1111
     20 O2'         0.1373   -0.0577    2.0407 O.3       1 ATP        -0.2728
     21 C1'         1.3733    1.5427    0.6747 C.3       1 ATP         0.2693
     22 N9          0.4520    2.5240    0.1767 N.pl3     1 ATP        -0.3222
     23 C8         -0.3054    2.4845   -1.1576 C.ar      1 ATP         0.1640
     24 N7         -1.0755    3.5806   -1.2691 N.2       1 ATP        -0.1640
     25 C5         -0.8043    4.2306   -0.0942 C.ar      1 ATP         0.0820
     26 C6         -1.4324    5.5335    0.2646 C.ar      1 ATP         0.1640
     27 N6         -2.2885    6.1054   -0.5675 N.pl3     1 ATP        -0.4916
     28 N1         -1.0537    6.0229    1.4478 N.pl3     1 ATP        -0.4390
     29 C2         -0.1096    5.3242    2.2908 C.ar      1 ATP         0.5691
     30 N3          0.4468    4.1904    1.9960 N.ar      1 ATP        -0.4283
     31 C4          0.0631    3.6855    0.7877 C.ar      1 ATP         0.2226
     32 HOA2        4.9282   -1.4920   -3.6444 H         1 ATP         0.2010
     33 H5'1        1.2163   -0.0770   -2.0471 H         1 ATP        -0.0393
     34 H5'2        2.4655   -1.3443   -2.1563 H         1 ATP        -0.0393
     35 H4'         3.8040   -0.1399   -0.4044 H         1 ATP        -0.0393
     36 H3'         1.6768   -1.7637    0.2732 H         1 ATP        -0.0393
     37 HO3'        2.2231   -1.2979    2.3952 H         1 ATP         0.2010
     38 H2'         0.0002   -0.0084   -0.0014 H         1 ATP        -0.0393
     39 HO2'       -0.6132    0.5577    2.1063 H         1 ATP         0.2010
     40 H1'         1.7718    1.9211    1.6015 H         1 ATP        -0.0393
     41 H8         -0.2991    1.7413   -1.9611 H         1 ATP         0.0000
     42 HN61       -2.5167    5.6603   -1.4447 H         1 ATP         0.2048
     43 HN62       -2.7159    6.9882   -0.3270 H         1 ATP         0.2048
     44 H2          0.1059    5.8491    3.2340 H         1 ATP        -0.1292
     45 H45        -1.4532    6.9099    1.7401 H         1 ATP         0.2048
@<TRIPOS>BOND
     1    1    2 2
     2    1    3 1
     3    1    4 1
     4    1    8 1
     5    5    6 2
     6    5    7 1
     7    5    8 1
     8    5   12 1
     9    9   10 2
    10    9   11 1
    11    9   12 1
    12    9   13 1
    13   11   32 1
    14   13   14 1
    15   14   15 1
    16   14   33 1
    17   14   34 1
    18   15   16 1
    19   15   17 1
    20   15   35 1
    21   16   21 1
    22   17   18 1
    23   17   19 1
    24   17   36 1
    25   18   37 1
    26   19   20 1
    27   19   21 1
    28   19   38 1
    29   20   39 1
    30   21   22 1
    31   21   40 1
    32   22   23 ar
    33   22   31 ar
    34   23   24 ar
    35   23   41 1
    36   24   25 ar
    37   25   26 ar
    38   25   31 ar
    39   26   27 1
    40   26   28 ar
    41   27   42 1
    42   27   43 1
    43   28   29 ar
    44   28   45 1
    45   29   30 ar
    46   29   44 1
    47   30   31 ar
@<TRIPOS>SUBSTRUCTURE
     1 ATP         1 GROUP 0 A     ****
@<TRIPOS>MOLECULE
[[[5-(6-amino-1,8-dihydropurine-6,8-diylium-7-id-9-yl)-3,4-dihydroxy-tetrahydrofuran-2-yl]methoxy-hydroxy-phosphoryl]oxy-oxido-phosphoryl] phosphate
   45    47     1     0     0
SMALL
USER_CHARGES

@<TRIPOS>ATOM
      1 PG          3.0003    0.1337   -7.0825 P.3       1 ATP        -1.1921
      2 O1G         3.6610   -1.1806   -6.6802 O.co2     1 ATP         0.3195
      3 O2G         2.7925    0.3004   -8.5838 O.co2     1 ATP         0.3195
      4 O3G         3.5860    1.3630   -6.3953 O.co2     1 ATP         0.3195
      5 PB          0.9308   -0.1549   -4.9381 P.3       1 ATP        -1.1062
      6 O1B         1.5430    0.9179   -4.0651 O.co2     1 ATP         0.3195
      7 O2B        -0.5680   -0.3533   -4.9895 O.co2     1 ATP         0.3195
      8 O3B         1.4753    0.0309   -6.4662 O.3       1 ATP         0.4672
      9 PA          1.5771   -2.4667   -3.2257 P.3       1 ATP        -0.9715
     10 O1A         1.9405   -3.9104   -3.4192 O.2       1 ATP         0.2707
     11 O2A         0.0761   -2.2218   -2.6739 O.3       1 ATP         0.0326
     12 O3A         1.6317   -1.5847   -4.5811 O.3       1 ATP         0.4672
     13 O5'         2.5245   -1.6648   -2.1878 O.3       1 ATP         0.1618
     14 C5'         2.2816   -0.2918   -1.9206 C.3       1 ATP         0.1504
     15 C4'         2.7248    0.0226   -0.4980 C.3       1 ATP         0.1111
     16 O4'         2.4697    1.4219   -0.2462 O.3       1 ATP        -0.1436
     17 C3'         1.9404   -0.7419    0.5596 C.3       1 ATP         0.1111
     18 O3'         2.7418   -0.8086    1.7389 O.3       1 ATP        -0.2728
     19 C2'         0.7477    0.1630    0.7858 C.3       1 ATP         0.1111
     20 O2'         0.1373   -0.0577    2.0407 O.3       1 ATP        -0.2728
     21 C1'         1.3733    1.5427    0.6747 C.3       1 ATP         0.2693
     22 N9          0.4520    2.5240    0.1767 N.pl3     1 ATP        -0.3222
     23 C8          0.1798    2.8712   -1.2933 C.ar      1 ATP         0.1640
     24 N7         -0.7494    3.8400   -1.3610 N.2       1 ATP        -0.1640
     25 C5         -1.0173    4.0603   -0.0358 C.ar      1 ATP         0.0820
     26 C6         -2.0105    5.0717    0.4241 C.ar      1 ATP         0.1640
     27 N6         -2.6723    5.7982   -0.4628 N.pl3     1 ATP        -0.4916
     28 N1         -2.1445    5.1522    1.7502 N.pl3     1 ATP        -0.4390
     29 C2         -1.3755    4.3143    2.6427 C.ar      1 ATP         0.5691
     30 N3         -0.5075    3.4292    2.2616 N.ar      1 ATP        -0.4283
     31 C4         -0.3667    3.3425    0.9070 C.ar      1 ATP         0.2226
     32 HOA2       -0.1792   -2.6042   -1.8075 H         1 ATP         0.2010
     33 H5'1        2.8432    0.3119   -2.6398 H         1 ATP        -0.0393
     34 H5'2        1.2128   -0.0927   -2.0428 H         1 ATP        -0.0393
     35 H4'         3.8040   -0.1399   -0.4044 H         1 ATP        -0.0393
     36 H3'         1.6768   -1.7637    0.2732 H         1 ATP        -0.0393
     37 HO3'        2.2231   -1.2979    2.3952 H         1 ATP         0.2010
     38 H2'         0.0002   -0.0084   -0.0014 H         1 ATP        -0.0393
     39 HO2'       -0.1554   -0.9852    2.0577 H         1 ATP         0.2010
     40 H1'         1.7718    1.9211    1.6015 H         1 ATP        -0.0393
     41 H8          0.6089    2.4651   -2.2147 H         1 ATP         0.0000
     42 HN61       -2.5055    5.6680   -1.4503 H         1 ATP         0.2048
     43 HN62       -3.3462    6.4841   -0.1542 H         1 ATP         0.2048
     44 H2         -1.5932    4.4937    3.7066 H         1 ATP        -0.1292
     45 H45        -2.8098    5.8270    2.1160 H         1 ATP         0.2048
@<TRIPOS>BOND
     1    1    2 2
     2    1    3 1
     3    1    4 1
     4    1    8 1
     5    5    6 2
     6    5    7 1
     7    5    8 1
     8    5   12 1
     9    9   10 2
    10    9   11 1
    11    9   12 1
    12    9   13 1
    13   11   32 1
    14   13   14 1
    15   14   15 1
    16   14   33 1
    17   14   34 1
    18   15   16 1
    19   15   17 1
    20   15   35 1
    21   16   21 1
    22   17   18 1
    23   17   19 1
    24   17   36 1
    25   18   37 1
    26   19   20 1
    27   19   21 1
    28   19   38 1
    29   20   39 1
    30   21   22 1
    31   21   40 1
    32   22   23 ar
    33   22   31 ar
    34   23   24 ar
    35   23   41 1
    36   24   25 ar
    37   25   26 ar
    38   25   31 ar
    39   26   27 1
    40   26   28 ar
    41   27   42 1
    42   27   43 1
    43   28   29 ar
    44   28   45 1
    45   29   30 ar
    46   29   44 1
    47   30   31 ar
@<TRIPOS>SUBSTRUCTURE
     1 ATP         1 GROUP 0 A     ****
@<TRIPOS>MOLECULE
[[[5-(6-amino-1,8-dihydropurine-6,8-diylium-7-id-9-yl)-3,4-dihydroxy-tetrahydrofuran-2-yl]methoxy-hydroxy-phosphoryl]oxy-oxido-phosphoryl] phosphate
   45    47     1     0     0
SMALL
USER_CHARGES

@<TRIPOS>ATOM
      1 PG         -0.3751   -1.1475   -7.2451 P.3       1 ATP        -1.1921
      2 O1G         0.0942   -2.4919   -7.7910 O.co2     1 ATP         0.3195
      3 O2G        -1.8358   -0.8237   -7.5390 O.co2     1 ATP         0.3195
      4 O3G         0.5847    0.0063   -7.5171 O.co2     1 ATP         0.3195
      5 PB          0.9169   -1.6787   -4.5970 P.3       1 ATP        -1.1062
      6 O1B         0.4295   -1.5635   -3.1698 O.co2     1 ATP         0.3195
      7 O2B         1.5885   -2.9418   -5.0892 O.co2     1 ATP         0.3195
      8 O3B        -0.3161   -1.3272   -5.6080 O.3       1 ATP         0.4672
      9 PA          3.3423   -0.0257   -4.3151 P.3       1 ATP        -0.9715
     10 O1A         4.1311    0.9234   -5.1701 O.2       1 ATP         0.2707
     11 O2A         4.0498   -1.4615   -4.0799 O.3       1 ATP         0.0326
     12 O3A         1.8928   -0.4118   -4.9217 O.3       1 ATP         0.4672
     13 O5'         3.0213    0.5153   -2.8245 O.3       1 ATP         0.1618
     14 C5'         2.2816   -0.2918   -1.9206 C.3       1 ATP         0.1504
     15 C4'         2.7248    0.0226   -0.4980 C.3       1 ATP         0.1111
     16 O4'         2.4697    1.4219   -0.2462 O.3       1 ATP        -0.1436
     17 C3'         1.9404   -0.7419    0.5596 C.3       1 ATP         0.1111
     18 O3'         2.7418   -0.8086    1.7389 O.3       1 ATP        -0.2728
     19 C2'         0.7477    0.1630    0.7858 C.3       1 ATP         0.1111
     20 O2'         0.1373   -0.0577    2.0407 O.3       1 ATP        -0.2728
     21 C1'         1.3733    1.5427    0.6747 C.3       1 ATP         0.2693
     22 N9          0.4520    2.5240    0.1767 N.pl3     1 ATP        -0.3222
     23 C8          0.1798    2.8712   -1.2933 C.ar      1 ATP         0.1640
     24 N7         -0.7494    3.8400   -1.3610 N.2       1 ATP        -0.1640
     25 C5         -1.0173    4.0603   -0.0358 C.ar      1 ATP         0.0820
     26 C6         -2.0105    5.0717    0.4241 C.ar      1 ATP         0.1640
     27 N6         -2.6723    5.7982   -0.4628 N.pl3     1 ATP        -0.4916
     28 N1         -2.1445    5.1522    1.7502 N.pl3     1 ATP        -0.4390
     29 C2         -1.3755    4.3143    2.6427 C.ar      1 ATP         0.5691
     30 N3         -0.5075    3.4292    2.2616 N.ar      1 ATP        -0.4283
     31 C4         -0.3667    3.3425    0.9070 C.ar      1 ATP         0.2226
     32 HOA2        4.9282   -1.4920   -3.6444 H         1 ATP         0.2010
     33 H5'1        1.2163   -0.0770   -2.0471 H         1 ATP        -0.0393
     34 H5'2        2.4655   -1.3443   -2.1563 H         1 ATP        -0.0393
     35 H4'         3.8040   -0.1399   -0.4044 H         1 ATP        -0.0393
     36 H3'         1.6768   -1.7637    0.2732 H         1 ATP        -0.0393
     37 HO3'        3.5553   -1.2733    1.4913 H         1 ATP         0.2010
     38 H2'         0.0002   -0.0084   -0.0014 H         1 ATP        -0.0393
     39 HO2'       -0.6132    0.5577    2.1063 H         1 ATP         0.2010
     40 H1'         1.7718    1.9211    1.6015 H         1 ATP        -0.0393
     41 H8          0.6089    2.4651   -2.2147 H         1 ATP         0.0000
     42 HN61       -2.5055    5.6680   -1.4503 H         1 ATP         0.2048
     43 HN62       -3.3462    6.4841   -0.1542 H         1 ATP         0.2048
     44 H2         -1.5932    4.4937    3.7066 H         1 ATP        -0.1292
     45 H45        -2.8098    5.8270    2.1160 H         1 ATP         0.2048
@<TRIPOS>BOND
     1    1    2 2
     2    1    3 1
     3    1    4 1
     4    1    8 1
     5    5    6 2
     6    5    7 1
     7    5    8 1
     8    5   12 1
     9    9   10 2
    10    9   11 1
    11    9   12 1
    12    9   13 1
    13   11   32 1
    14   13   14 1
    15   14   15 1
    16   14   33 1
    17   14   34 1
    18   15   16 1
    19   15   17 1
    20   15   35 1
    21   16   21 1
    22   17   18 1
    23   17   19 1
    24   17   36 1
    25   18   37 1
    26   19   20 1
    27   19   21 1
    28   19   38 1
    29   20   39 1
    30   21   22 1
    31   21   40 1
    32   22   23 ar
    33   22   31 ar
    34   23   24 ar
    35   23   41 1
    36   24   25 ar
    37   25   26 ar
    38   25   31 ar
    39   26   27 1
    40   26   28 ar
    41   27   42 1
    42   27   43 1
    43   28   29 ar
    44   28   45 1
    45   29   30 ar
    46   29   44 1
    47   30   31 ar
@<TRIPOS>SUBSTRUCTURE
     1 ATP         1 GROUP 0 A     ****
@<TRIPOS>MOLECULE
[[[5-(6-amino-1,8-dihydropurine-6,8-diylium-7-id-9-yl)-3,4-dihydroxy-tetrahydrofuran-2-yl]methoxy-hydroxy-phosphoryl]oxy-oxido-phosphoryl] phosphate
   45    47     1     0     0
SMALL
USER_CHARGES

@<TRIPOS>ATOM
      1 PG         -1.4811    1.5794   -4.2422 P.3       1 ATP        -1.1921
      2 O1G        -1.3866    2.5412   -3.0625 O.co2     1 ATP         0.3195
      3 O2G        -2.7621    1.7086   -5.0590 O.co2     1 ATP         0.3195
      4 O3G        -1.0991    0.1412   -3.9074 O.co2     1 ATP         0.3195
      5 PB          1.3277    2.1960   -5.0759 P.3       1 ATP        -1.1062
      6 O1B         1.9538    2.5557   -6.4049 O.co2     1 ATP         0.3195
      7 O2B         1.5957    3.0269   -3.8404 O.co2     1 ATP         0.3195
      8 O3B        -0.2890    2.0716   -5.2682 O.3       1 ATP         0.4672
      9 PA          3.0905   -0.0736   -4.4161 P.3       1 ATP        -0.9715
     10 O1A         4.2294    0.4201   -5.2606 O.2       1 ATP         0.2707
     11 O2A         2.7697   -1.6508   -4.5799 O.3       1 ATP         0.0326
     12 O3A         1.6732    0.6374   -4.7382 O.3       1 ATP         0.4672
     13 O5'         3.2903    0.1346   -2.8241 O.3       1 ATP         0.1618
     14 C5'         2.2816   -0.2918   -1.9206 C.3       1 ATP         0.1504
     15 C4'         2.7248    0.0226   -0.4980 C.3       1 ATP         0.1111
     16 O4'         2.4697    1.4219   -0.2462 O.3       1 ATP        -0.1436
     17 C3'         1.9404   -0.7419    0.5596 C.3       1 ATP         0.1111
     18 O3'         2.7418   -0.8086    1.7389 O.3       1 ATP        -0.2728
     19 C2'         0.7477    0.1630    0.7858 C.3       1 ATP         0.1111
     20 O2'         0.1373   -0.0577    2.0407 O.3       1 ATP        -0.2728
     21 C1'         1.3733    1.5427    0.6747 C.3       1 ATP         0.2693
     22 N9          0.4520    2.5240    0.1767 N.pl3     1 ATP        -0.3222
     23 C8          0.5793    3.3338   -1.1209 C.ar      1 ATP         0.1640
     24 N7         -0.4807    4.1508   -1.2458 N.2       1 ATP        -0.1640
     25 C5         -1.1921    3.8572   -0.1126 C.ar      1 ATP         0.0820
     26 C6         -2.4855    4.5203    0.2163 C.ar      1 ATP         0.1640
     27 N6         -2.9873    5.4319   -0.6020 N.pl3     1 ATP        -0.4916
     28 N1         -3.0414    4.1119    1.3596 N.pl3     1 ATP        -0.4390
     29 C2         -2.4169    3.1071    2.1904 C.ar      1 ATP         0.5691
     30 N3         -1.2928    2.5191    1.9210 N.ar      1 ATP        -0.4283
     31 C4         -0.7202    2.9326    0.7534 C.ar      1 ATP         0.2226
     32 HOA2        3.4697   -2.3025   -4.3622 H         1 ATP         0.2010
     33 H5'1        1.3514    0.2330   -2.1577 H         1 ATP        -0.0393
     34 H5'2        2.1280   -1.3678   -2.0460 H         1 ATP        -0.0393
     35 H4'         3.8040   -0.1399   -0.4044 H         1 ATP        -0.0393
     36 H3'         1.6768   -1.7637    0.2732 H         1 ATP        -0.0393
     37 HO3'        3.5553   -1.2733    1.4913 H         1 ATP         0.2010
     38 H2'         0.0002   -0.0084   -0.0014 H         1 ATP        -0.0393
     39 HO2'        0.8091    0.1203    2.7213 H         1 ATP         0.2010
     40 H1'         1.7718    1.9211    1.6015 H         1 ATP        -0.0393
     41 H8          1.3565    3.3309   -1.8916 H         1 ATP         0.0000
     42 HN61       -2.4952    5.6785   -1.4487 H         1 ATP         0.2048
     43 HN62       -3.8637    5.8828   -0.3819 H         1 ATP         0.2048
     44 H2         -2.9911    2.8734    3.1000 H         1 ATP        -0.1292
     45 H45        -3.9253    4.5332    1.6302 H         1 ATP         0.2048
@<TRIPOS>BOND
     1    1    2 2
     2    1    3 1
     3    1    4 1
     4    1    8 1
     5    5    6 2
     6    5    7 1
     7    5    8 1
     8    5   12 1
     9    9   10 2
    10    9   11 1
    11    9   12 1
    12    9   13 1
    13   11   32 1
    14   13   14 1
    15   14   15 1
    16   14   33 1
    17   14   34 1
    18   15   16 1
    19   15   17 1
    20   15   35 1
    21   16   21 1
    22   17   18 1
    23   17   19 1
    24   17   36 1
    25   18   37 1
    26   19   20 1
    27   19   21 1
    28   19   38 1
    29   20   39 1
    30   21   22 1
    31   21   40 1
    32   22   23 ar
    33   22   31 ar
    34   23   24 ar
    35   23   41 1
    36   24   25 ar
    37   25   26 ar
    38   25   31 ar
    39   26   27 1
    40   26   28 ar
    41   27   42 1
    42   27   43 1
    43   28   29 ar
    44   28   45 1
    45   29   30 ar
    46   29   44 1
    47   30   31 ar
@<TRIPOS>SUBSTRUCTURE
     1 ATP         1 GROUP 0 A     ****
@<TRIPOS>MOLECULE
[[[5-(6-amino-1,8-dihydropurine-6,8-diylium-7-id-9-yl)-3,4-dihydroxy-tetrahydrofuran-2-yl]methoxy-hydroxy-phosphoryl]oxy-oxido-phosphoryl] phosphate
   45    47     1     0     0
SMALL
USER_CHARGES

@<TRIPOS>ATOM
      1 PG          3.2484    6.3784   -4.1523 P.3       1 ATP        -1.1921
      2 O1G         2.3801    7.1729   -3.1826 O.co2     1 ATP         0.3195
      3 O2G         4.7471    6.6038   -3.9852 O.co2     1 ATP         0.3195
      4 O3G         2.7700    6.4240   -5.5999 O.co2     1 ATP         0.3195
      5 PB          1.6740    3.8825   -3.6462 P.3       1 ATP        -1.1062
      6 O1B         0.7616    4.4222   -2.5674 O.co2     1 ATP         0.3195
      7 O2B         1.1702    3.6739   -5.0574 O.co2     1 ATP         0.3195
      8 O3B         3.0186    4.8064   -3.7141 O.3       1 ATP         0.4672
      9 PA          2.9489    1.2416   -3.9536 P.3       1 ATP        -0.9715
     10 O1A         4.1018    1.6049   -4.8439 O.2       1 ATP         0.2707
     11 O2A         1.6644    0.6409   -4.7324 O.3       1 ATP         0.0326
     12 O3A         2.3392    2.4880   -3.1212 O.3       1 ATP         0.4672
     13 O5'         3.2903    0.1346   -2.8241 O.3       1 ATP         0.1618
     14 C5'         2.2816   -0.2918   -1.9206 C.3       1 ATP         0.1504
     15 C4'         2.7248    0.0226   -0.4980 C.3       1 ATP         0.1111
     16 O4'         2.4697    1.4219   -0.2462 O.3       1 ATP        -0.1436
     17 C3'         1.9404   -0.7419    0.5596 C.3       1 ATP         0.1111
     18 O3'         2.7418   -0.8086    1.7389 O.3       1 ATP        -0.2728
     19 C2'         0.7477    0.1630    0.7858 C.3       1 ATP         0.1111
     20 O2'         0.1373   -0.0577    2.0407 O.3       1 ATP        -0.2728
     21 C1'         1.3733    1.5427    0.6747 C.3       1 ATP         0.2693
     22 N9          0.4520    2.5240    0.1767 N.pl3     1 ATP        -0.3222
     23 C8         -0.3054    2.4845   -1.1576 C.ar      1 ATP         0.1640
     24 N7         -1.0755    3.5806   -1.2691 N.2       1 ATP        -0.1640
     25 C5         -0.8043    4.2306   -0.0942 C.ar      1 ATP         0.0820
     26 C6         -1.4324    5.5335    0.2646 C.ar      1 ATP         0.1640
     27 N6         -2.2885    6.1054   -0.5675 N.pl3     1 ATP        -0.4916
     28 N1         -1.0537    6.0229    1.4478 N.pl3     1 ATP        -0.4390
     29 C2         -0.1096    5.3242    2.2908 C.ar      1 ATP         0.5691
     30 N3          0.4468    4.1904    1.9960 N.ar      1 ATP        -0.4283
     31 C4          0.0631    3.6855    0.7877 C.ar      1 ATP         0.2226
     32 HOA2        1.7698   -0.1802   -5.2585 H         1 ATP         0.2010
     33 H5'1        1.3514    0.2330   -2.1577 H         1 ATP        -0.0393
     34 H5'2        2.1280   -1.3678   -2.0460 H         1 ATP        -0.0393
     35 H4'         3.8040   -0.1399   -0.4044 H         1 ATP        -0.0393
     36 H3'         1.6768   -1.7637    0.2732 H         1 ATP        -0.0393
     37 HO3'        2.2231   -1.2979    2.3952 H         1 ATP         0.2010
     38 H2'         0.0002   -0.0084   -0.0014 H         1 ATP        -0.0393
     39 HO2'       -0.1554   -0.9852    2.0577 H         1 ATP         0.2010
     40 H1'         1.7718    1.9211    1.6015 H         1 ATP        -0.0393
     41 H8         -0.2991    1.7413   -1.9611 H         1 ATP         0.0000
     42 HN61       -2.5167    5.6603   -1.4447 H         1 ATP         0.2048
     43 HN62       -2.7159    6.9882   -0.3270 H         1 ATP         0.2048
     44 H2          0.1059    5.8491    3.2340 H         1 ATP        -0.1292
     45 H45        -1.4532    6.9099    1.7401 H         1 ATP         0.2048
@<TRIPOS>BOND
     1    1    2 2
     2    1    3 1
     3    1    4 1
     4    1    8 1
     5    5    6 2
     6    5    7 1
     7    5    8 1
     8    5   12 1
     9    9   10 2
    10    9   11 1
    11    9   12 1
    12    9   13 1
    13   11   32 1
    14   13   14 1
    15   14   15 1
    16   14   33 1
    17   14   34 1
    18   15   16 1
    19   15   17 1
    20   15   35 1
    21   16   21 1
    22   17   18 1
    23   17   19 1
    24   17   36 1
    25   18   37 1
    26   19   20 1
    27   19   21 1
    28   19   38 1
    29   20   39 1
    30   21   22 1
    31   21   40 1
    32   22   23 ar
    33   22   31 ar
    34   23   24 ar
    35   23   41 1
    36   24   25 ar
    37   25   26 ar
    38   25   31 ar
    39   26   27 1
    40   26   28 ar
    41   27   42 1
    42   27   43 1
    43   28   29 ar
    44   28   45 1
    45   29   30 ar
    46   29   44 1
    47   30   31 ar
@<TRIPOS>SUBSTRUCTURE
     1 ATP         1 GROUP 0 A     ****
@<TRIPOS>MOLECULE
[[[5-(6-amino-1,8-dihydropurine-6,8-diylium-7-id-9-yl)-3,4-dihydroxy-tetrahydrofuran-2-yl]methoxy-hydroxy-phosphoryl]oxy-oxido-phosphoryl] phosphate
   45    47     1     0     0
SMALL
USER_CHARGES

@<TRIPOS>ATOM
      1 PG          4.4427    1.1507   -4.6879 P.3       1 ATP        -1.1921
      2 O1G         3.8481    2.3336   -5.4447 O.co2     1 ATP         0.3195
      3 O2G         4.9611    1.4906   -3.2948 O.co2     1 ATP         0.3195
      4 O3G         5.3974    0.2961   -5.5155 O.co2     1 ATP         0.3195
      5 PB          2.1304   -0.5972   -5.4378 P.3       1 ATP        -1.1062
      6 O1B         1.2967    0.4464   -6.1473 O.co2     1 ATP         0.3195
      7 O2B         2.9078   -1.6336   -6.2191 O.co2     1 ATP         0.3195
      8 O3B         3.1602    0.1521   -4.4160 O.3       1 ATP         0.4672
      9 PA          1.5771   -2.4667   -3.2257 P.3       1 ATP        -0.9715
     10 O1A         2.1804   -3.7236   -3.7826 O.2       1 ATP         0.2707
     11 O2A         0.1922   -2.6885   -2.4194 O.3       1 ATP         0.0326
     12 O3A         1.1910   -1.3664   -4.3475 O.3       1 ATP         0.4672
     13 O5'         2.5245   -1.6648   -2.1878 O.3       1 ATP         0.1618
     14 C5'         2.2816   -0.2918   -1.9206 C.3       1 ATP         0.1504
     15 C4'         2.7248    0.0226   -0.4980 C.3       1 ATP         0.1111
     16 O4'         2.4697    1.4219   -0.2462 O.3       1 ATP        -0.1436
     17 C3'         1.9404   -0.7419    0.5596 C.3       1 ATP         0.1111
     18 O3'         2.7418   -0.8086    1.7389 O.3       1 ATP        -0.2728
     19 C2'         0.7477    0.1630    0.7858 C.3       1 ATP         0.1111
     20 O2'         0.1373   -0.0577    2.0407 O.3       1 ATP        -0.2728
     21 C1'         1.3733    1.5427    0.6747 C.3       1 ATP         0.2693
     22 N9          0.4520    2.5240    0.1767 N.pl3     1 ATP        -0.3222
     23 C8          0.1798    2.8712   -1.2933 C.ar      1 ATP         0.1640
     24 N7         -0.7494    3.8400   -1.3610 N.2       1 ATP        -0.1640
     25 C5         -1.0173    4.0603   -0.0358 C.ar      1 ATP         0.0820
     26 C6         -2.0105    5.0717    0.4241 C.ar      1 ATP         0.1640
     27 N6         -2.6723    5.7982   -0.4628 N.pl3     1 ATP        -0.4916
     28 N1         -2.1445    5.1522    1.7502 N.pl3     1 ATP        -0.4390
     29 C2         -1.3755    4.3143    2.6427 C.ar      1 ATP         0.5691
     30 N3         -0.5075    3.4292    2.2616 N.ar      1 ATP        -0.4283
     31 C4         -0.3667    3.3425    0.9070 C.ar      1 ATP         0.2226
     32 HOA2        0.1907   -3.2709   -1.6301 H         1 ATP         0.2010
     33 H5'1        2.8432    0.3119   -2.6398 H         1 ATP        -0.0393
     34 H5'2        1.2128   -0.0927   -2.0428 H         1 ATP        -0.0393
     35 H4'         3.8040   -0.1399   -0.4044 H         1 ATP        -0.0393
     36 H3'         1.6768   -1.7637    0.2732 H         1 ATP        -0.0393
     37 HO3'        2.2231   -1.2979    2.3952 H         1 ATP         0.2010
     38 H2'         0.0002   -0.0084   -0.0014 H         1 ATP        -0.0393
     39 HO2'       -0.6132    0.5577    2.1063 H         1 ATP         0.2010
     40 H1'         1.7718    1.9211    1.6015 H         1 ATP        -0.0393
     41 H8          0.6089    2.4651   -2.2147 H         1 ATP         0.0000
     42 HN61       -2.5055    5.6680   -1.4503 H         1 ATP         0.2048
     43 HN62       -3.3462    6.4841   -0.1542 H         1 ATP         0.2048
     44 H2         -1.5932    4.4937    3.7066 H         1 ATP        -0.1292
     45 H45        -2.8098    5.8270    2.1160 H         1 ATP         0.2048
@<TRIPOS>BOND
     1    1    2 2
     2    1    3 1
     3    1    4 1
     4    1    8 1
     5    5    6 2
     6    5    7 1
     7    5    8 1
     8    5   12 1
     9    9   10 2
    10    9   11 1
    11    9   12 1
    12    9   13 1
    13   11   32 1
    14   13   14 1
    15   14   15 1
    16   14   33 1
    17   14   34 1
    18   15   16 1
    19   15   17 1
    20   15   35 1
    21   16   21 1
    22   17   18 1
    23   17   19 1
    24   17   36 1
    25   18   37 1
    26   19   20 1
    27   19   21 1
    28   19   38 1
    29   20   39 1
    30   21   22 1
    31   21   40 1
    32   22   23 ar
    33   22   31 ar
    34   23   24 ar
    35   23   41 1
    36   24   25 ar
    37   25   26 ar
    38   25   31 ar
    39   26   27 1
    40   26   28 ar
    41   27   42 1
    42   27   43 1
    43   28   29 ar
    44   28   45 1
    45   29   30 ar
    46   29   44 1
    47   30   31 ar
@<TRIPOS>SUBSTRUCTURE
     1 ATP         1 GROUP 0 A     ****
