@<TRIPOS>MOLECULE
[[[5-(6-aminopurin-9-yl)-3,4-dihydroxy-tetrahydrofuran-2-yl]methoxy-hydroxy-phosphoryl]oxy-oxido-phosphoryl] phosphate
   44    46     1     0     0
SMALL
USER_CHARGES

@<TRIPOS>ATOM
      1 PG         -5.3798    0.4591    2.1238 P.3       1 ATP         1.4221
      2 O1G        -5.7827   -0.2673    0.8448 O.co2     1 ATP        -0.9341
      3 O2G        -4.4312   -0.3270    3.0222 O.co2     1 ATP        -0.9341
      4 O3G        -6.5432    1.1095    2.8654 O.co2     1 ATP        -0.9341
      5 PB         -4.8458    2.9901    0.6161 P.3       1 ATP         1.6363
      6 O1B        -5.0860    2.4602   -0.7800 O.co2     1 ATP        -0.9021
      7 O2B        -5.8765    3.8558    1.3067 O.co2     1 ATP        -0.9021
      8 O3B        -4.4838    1.7401    1.6023 O.3       1 ATP        -0.7799
      9 PA         -2.5918    4.4091    1.8810 P.3       1 ATP         1.7141
     10 O1A        -3.4540    5.1134    2.8882 O.2       1 ATP        -0.8703
     11 O2A        -1.4938    5.3545    1.1613 O.3       1 ATP        -0.8196
     12 O3A        -3.4123    3.7693    0.6419 O.3       1 ATP        -0.7658
     13 O5'        -1.7333    3.1724    2.4738 O.3       1 ATP        -0.5841
     14 C5'        -0.8811    2.4285    1.6206 C.3       1 ATP         0.1451
     15 C4'        -0.1994    1.3333    2.4288 C.3       1 ATP         0.0896
     16 O4'        -1.1285    0.2356    2.5840 O.3       1 ATP        -0.3980
     17 C3'         1.0324    0.7610    1.7344 C.3       1 ATP         0.0854
     18 O3'         1.9175    0.2377    2.7247 O.3       1 ATP        -0.5883
     19 C2'         0.4468   -0.3802    0.9263 C.3       1 ATP         0.0574
     20 O2'         1.3993   -1.3703    0.5961 O.3       1 ATP        -0.6005
     21 C1'        -0.6159   -0.9100    1.8769 C.3       1 ATP         0.4284
     22 N9         -1.7127   -1.6108    1.2130 N.pl3     1 ATP        -0.6877
     23 C8         -2.5476   -1.0844    0.2632 C.ar      1 ATP         0.5830
     24 N7         -3.4391   -1.9591   -0.1536 N.2       1 ATP        -0.5778
     25 C5         -3.1701   -3.1016    0.5574 C.ar      1 ATP        -0.1986
     26 C6         -3.7593   -4.3620    0.5656 C.ar      1 ATP         0.7073
     27 N6         -4.8512   -4.6493   -0.2712 N.pl3     1 ATP        -0.9340
     28 N1         -3.2659   -5.3144    1.3932 N.ar      1 ATP        -0.8111
     29 C2         -2.2122   -4.9785    2.1759 C.ar      1 ATP         0.6446
     30 N3         -1.5595   -3.7985    2.2572 N.ar      1 ATP        -0.7095
     31 C4         -2.0986   -2.9054    1.4140 C.ar      1 ATP         0.5640
     32 HOA2       -0.8194    5.8039    1.7138 H         1 ATP         0.4759
     33 H5'1       -1.4792    1.9919    0.8140 H         1 ATP         0.0806
     34 H5'2       -0.1359    3.1032    1.1865 H         1 ATP         0.0806
     35 H4'         0.0402    1.7079    3.4342 H         1 ATP         0.1213
     36 H3'         1.5907    1.4859    1.1353 H         1 ATP         0.1208
     37 HO3'        2.6839   -0.1150    2.2479 H         1 ATP         0.3965
     38 H2'        -0.0017    0.0018    0.0005 H         1 ATP         0.0768
     39 HO2'        2.0953   -0.9375    0.0709 H         1 ATP         0.4074
     40 H1'        -0.1998   -1.6319    2.6178 H         1 ATP         0.0935
     41 H8         -2.4576   -0.0639   -0.0831 H         1 ATP         0.1424
     42 HN61       -5.2371   -3.9234   -0.8448 H         1 ATP         0.4144
     43 HN62       -5.2909   -5.5485   -0.2160 H         1 ATP         0.4144
     44 H2         -1.8433   -5.7650    2.8259 H         1 ATP         0.0297
@<TRIPOS>BOND
     1    1    2 2
     2    1    3 1
     3    1    4 1
     4    1    8 1
     5    5    6 2
     6    5    7 1
     7    5    8 1
     8    5   12 1
     9    9   10 2
    10    9   11 1
    11    9   12 1
    12    9   13 1
    13   11   32 1
    14   13   14 1
    15   14   15 1
    16   14   33 1
    17   14   34 1
    18   15   16 1
    19   15   17 1
    20   15   35 1
    21   16   21 1
    22   17   18 1
    23   17   19 1
    24   17   36 1
    25   18   37 1
    26   19   20 1
    27   19   21 1
    28   19   38 1
    29   20   39 1
    30   21   22 1
    31   21   40 1
    32   22   23 ar
    33   22   31 ar
    34   23   24 ar
    35   23   41 1
    36   24   25 ar
    37   25   26 ar
    38   25   31 ar
    39   26   27 1
    40   26   28 ar
    41   27   42 1
    42   27   43 1
    43   28   29 ar
    44   29   30 ar
    45   29   44 1
    46   30   31 ar
@<TRIPOS>SUBSTRUCTURE
     1 ATP         1 GROUP 0 A     ****
@<TRIPOS>MOLECULE
[[[5-(6-aminopurin-9-yl)-3,4-dihydroxy-tetrahydrofuran-2-yl]methoxy-hydroxy-phosphoryl]oxy-oxido-phosphoryl] phosphate
   44    46     1     0     0
SMALL
USER_CHARGES

@<TRIPOS>ATOM
      1 PG         -4.2112   -0.3413    3.9889 P.3       1 ATP         1.4221
      2 O1G        -4.6039   -1.5402    3.1322 O.co2     1 ATP        -0.9341
      3 O2G        -2.8815   -0.4974    4.7187 O.co2     1 ATP        -0.9341
      4 O3G        -5.3397    0.1994    4.8611 O.co2     1 ATP        -0.9341
      5 PB         -4.9146    1.5650    1.7900 P.3       1 ATP         1.6363
      6 O1B        -5.2511    0.5454    0.7247 O.co2     1 ATP        -0.9021
      7 O2B        -6.0067    2.3170    2.5185 O.co2     1 ATP        -0.9021
      8 O3B        -3.9432    0.8683    2.9023 O.3       1 ATP        -0.7799
      9 PA         -3.0699    3.8636    1.8791 P.3       1 ATP         1.7141
     10 O1A        -3.8847    4.6220    2.8865 O.2       1 ATP        -0.8703
     11 O2A        -2.5444    4.7544    0.6351 O.3       1 ATP        -0.8196
     12 O3A        -3.8657    2.6484    1.1663 O.3       1 ATP        -0.7658
     13 O5'        -1.7333    3.1724    2.4738 O.3       1 ATP        -0.5841
     14 C5'        -0.8811    2.4285    1.6206 C.3       1 ATP         0.1451
     15 C4'        -0.1994    1.3333    2.4288 C.3       1 ATP         0.0896
     16 O4'        -1.1285    0.2356    2.5840 O.3       1 ATP        -0.3980
     17 C3'         1.0324    0.7610    1.7344 C.3       1 ATP         0.0854
     18 O3'         1.9175    0.2377    2.7247 O.3       1 ATP        -0.5883
     19 C2'         0.4468   -0.3802    0.9263 C.3       1 ATP         0.0574
     20 O2'         1.3993   -1.3703    0.5961 O.3       1 ATP        -0.6005
     21 C1'        -0.6159   -0.9100    1.8769 C.3       1 ATP         0.4284
     22 N9         -1.7127   -1.6108    1.2130 N.pl3     1 ATP        -0.6877
     23 C8         -2.5476   -1.0844    0.2632 C.ar      1 ATP         0.5830
     24 N7         -3.4391   -1.9591   -0.1536 N.2       1 ATP        -0.5778
     25 C5         -3.1701   -3.1016    0.5574 C.ar      1 ATP        -0.1986
     26 C6         -3.7593   -4.3620    0.5656 C.ar      1 ATP         0.7073
     27 N6         -4.8512   -4.6493   -0.2712 N.pl3     1 ATP        -0.9340
     28 N1         -3.2659   -5.3144    1.3932 N.ar      1 ATP        -0.8111
     29 C2         -2.2122   -4.9785    2.1759 C.ar      1 ATP         0.6446
     30 N3         -1.5595   -3.7985    2.2572 N.ar      1 ATP        -0.7095
     31 C4         -2.0986   -2.9054    1.4140 C.ar      1 ATP         0.5640
     32 HOA2       -3.2019    5.1985    0.0584 H         1 ATP         0.4759
     33 H5'1       -1.4792    1.9919    0.8140 H         1 ATP         0.0806
     34 H5'2       -0.1359    3.1032    1.1865 H         1 ATP         0.0806
     35 H4'         0.0402    1.7079    3.4342 H         1 ATP         0.1213
     36 H3'         1.5907    1.4859    1.1353 H         1 ATP         0.1208
     37 HO3'        2.1521    0.9800    3.3017 H         1 ATP         0.3965
     38 H2'        -0.0017    0.0018    0.0005 H         1 ATP         0.0768
     39 HO2'        0.9369   -2.0558    0.0825 H         1 ATP         0.4074
     40 H1'        -0.1998   -1.6319    2.6178 H         1 ATP         0.0935
     41 H8         -2.4576   -0.0639   -0.0831 H         1 ATP         0.1424
     42 HN61       -5.2371   -3.9234   -0.8448 H         1 ATP         0.4144
     43 HN62       -5.2909   -5.5485   -0.2160 H         1 ATP         0.4144
     44 H2         -1.8433   -5.7650    2.8259 H         1 ATP         0.0297
@<TRIPOS>BOND
     1    1    2 2
     2    1    3 1
     3    1    4 1
     4    1    8 1
     5    5    6 2
     6    5    7 1
     7    5    8 1
     8    5   12 1
     9    9   10 2
    10    9   11 1
    11    9   12 1
    12    9   13 1
    13   11   32 1
    14   13   14 1
    15   14   15 1
    16   14   33 1
    17   14   34 1
    18   15   16 1
    19   15   17 1
    20   15   35 1
    21   16   21 1
    22   17   18 1
    23   17   19 1
    24   17   36 1
    25   18   37 1
    26   19   20 1
    27   19   21 1
    28   19   38 1
    29   20   39 1
    30   21   22 1
    31   21   40 1
    32   22   23 ar
    33   22   31 ar
    34   23   24 ar
    35   23   41 1
    36   24   25 ar
    37   25   26 ar
    38   25   31 ar
    39   26   27 1
    40   26   28 ar
    41   27   42 1
    42   27   43 1
    43   28   29 ar
    44   29   30 ar
    45   29   44 1
    46   30   31 ar
@<TRIPOS>SUBSTRUCTURE
     1 ATP         1 GROUP 0 A     ****
@<TRIPOS>MOLECULE
[[[5-(6-aminopurin-9-yl)-3,4-dihydroxy-tetrahydrofuran-2-yl]methoxy-hydroxy-phosphoryl]oxy-oxido-phosphoryl] phosphate
   44    46     1     0     0
SMALL
USER_CHARGES

@<TRIPOS>ATOM
      1 PG         -2.7984    2.2627   -2.8476 P.3       1 ATP         1.4221
      2 O1G        -2.0287    1.6411   -1.6870 O.co2     1 ATP        -0.9341
      3 O2G        -3.4471    1.2515   -3.7864 O.co2     1 ATP        -0.9341
      4 O3G        -2.0522    3.3851   -3.5618 O.co2     1 ATP        -0.9341
      5 PB         -4.1292    4.2266   -1.0210 P.3       1 ATP         1.6363
      6 O1B        -3.3001    5.3934   -1.5097 O.co2     1 ATP        -0.9021
      7 O2B        -5.5720    4.4174   -0.6082 O.co2     1 ATP        -0.9021
      8 O3B        -4.0683    3.0314   -2.1317 O.3       1 ATP        -0.7799
      9 PA         -2.9678    4.0282    1.6820 P.3       1 ATP         1.7141
     10 O1A        -4.1634    4.3948    2.5127 O.2       1 ATP        -0.8703
     11 O2A        -1.9459    5.2509    1.4023 O.3       1 ATP        -0.8196
     12 O3A        -3.3330    3.4923    0.1996 O.3       1 ATP        -0.7658
     13 O5'        -2.0394    2.8623    2.3117 O.3       1 ATP        -0.5841
     14 C5'        -0.8811    2.4285    1.6206 C.3       1 ATP         0.1451
     15 C4'        -0.1994    1.3333    2.4288 C.3       1 ATP         0.0896
     16 O4'        -1.1285    0.2356    2.5840 O.3       1 ATP        -0.3980
     17 C3'         1.0324    0.7610    1.7344 C.3       1 ATP         0.0854
     18 O3'         1.9175    0.2377    2.7247 O.3       1 ATP        -0.5883
     19 C2'         0.4468   -0.3802    0.9263 C.3       1 ATP         0.0574
     20 O2'         1.3993   -1.3703    0.5961 O.3       1 ATP        -0.6005
     21 C1'        -0.6159   -0.9100    1.8769 C.3       1 ATP         0.4284
     22 N9         -1.7127   -1.6108    1.2130 N.pl3     1 ATP        -0.6877
     23 C8         -1.7712   -2.9546    0.9544 C.ar      1 ATP         0.5830
     24 N7         -2.8883   -3.2948    0.3462 N.2       1 ATP        -0.5778
     25 C5         -3.5834   -2.1202    0.2043 C.ar      1 ATP        -0.1986
     26 C6         -4.8225   -1.8251   -0.3554 C.ar      1 ATP         0.7073
     27 N6         -5.6154   -2.8394   -0.9189 N.pl3     1 ATP        -0.9340
     28 N1         -5.2589   -0.5425   -0.3507 N.ar      1 ATP        -0.8111
     29 C2         -4.4510    0.3913    0.2069 C.ar      1 ATP         0.6446
     30 N3         -3.2368    0.2296    0.7767 N.ar      1 ATP        -0.7095
     31 C4         -2.8684   -1.0596    0.7376 C.ar      1 ATP         0.5640
     32 HOA2       -1.5225    5.6993    2.1651 H         1 ATP         0.4759
     33 H5'1       -1.1757    2.0497    0.6364 H         1 ATP         0.0806
     34 H5'2       -0.2069    3.2809    1.4872 H         1 ATP         0.0806
     35 H4'         0.0402    1.7079    3.4342 H         1 ATP         0.1213
     36 H3'         1.5907    1.4859    1.1353 H         1 ATP         0.1208
     37 HO3'        2.6839   -0.1150    2.2479 H         1 ATP         0.3965
     38 H2'        -0.0017    0.0018    0.0005 H         1 ATP         0.0768
     39 HO2'        2.0953   -0.9375    0.0709 H         1 ATP         0.4074
     40 H1'        -0.1998   -1.6319    2.6178 H         1 ATP         0.0935
     41 H8         -0.9745   -3.6312    1.2318 H         1 ATP         0.1424
     42 HN61       -5.2619   -3.7766   -0.9586 H         1 ATP         0.4144
     43 HN62       -6.4834   -2.5990   -1.3590 H         1 ATP         0.4144
     44 H2         -4.8317    1.4071    0.1930 H         1 ATP         0.0297
@<TRIPOS>BOND
     1    1    2 2
     2    1    3 1
     3    1    4 1
     4    1    8 1
     5    5    6 2
     6    5    7 1
     7    5    8 1
     8    5   12 1
     9    9   10 2
    10    9   11 1
    11    9   12 1
    12    9   13 1
    13   11   32 1
    14   13   14 1
    15   14   15 1
    16   14   33 1
    17   14   34 1
    18   15   16 1
    19   15   17 1
    20   15   35 1
    21   16   21 1
    22   17   18 1
    23   17   19 1
    24   17   36 1
    25   18   37 1
    26   19   20 1
    27   19   21 1
    28   19   38 1
    29   20   39 1
    30   21   22 1
    31   21   40 1
    32   22   23 ar
    33   22   31 ar
    34   23   24 ar
    35   23   41 1
    36   24   25 ar
    37   25   26 ar
    38   25   31 ar
    39   26   27 1
    40   26   28 ar
    41   27   42 1
    42   27   43 1
    43   28   29 ar
    44   29   30 ar
    45   29   44 1
    46   30   31 ar
@<TRIPOS>SUBSTRUCTURE
     1 ATP         1 GROUP 0 A     ****
@<TRIPOS>MOLECULE
[[[5-(6-aminopurin-9-yl)-3,4-dihydroxy-tetrahydrofuran-2-yl]methoxy-hydroxy-phosphoryl]oxy-oxido-phosphoryl] phosphate
   44    46     1     0     0
SMALL
USER_CHARGES

@<TRIPOS>ATOM
      1 PG         -5.8961    1.1552   -1.0087 P.3       1 ATP         1.4221
      2 O1G        -4.9404    2.2163   -1.5440 O.co2     1 ATP        -0.9341
      3 O2G        -5.9264   -0.1334   -1.8233 O.co2     1 ATP        -0.9341
      4 O3G        -7.2758    1.6884   -0.6363 O.co2     1 ATP        -0.9341
      5 PB         -4.9146    1.5650    1.7900 P.3       1 ATP         1.6363
      6 O1B        -6.1650    2.2951    2.2272 O.co2     1 ATP        -0.9021
      7 O2B        -4.1647    0.6659    2.7480 O.co2     1 ATP        -0.9021
      8 O3B        -5.2452    0.7105    0.4385 O.3       1 ATP        -0.7799
      9 PA         -3.0699    3.8636    1.8791 P.3       1 ATP         1.7141
     10 O1A        -3.8847    4.6220    2.8865 O.2       1 ATP        -0.8703
     11 O2A        -2.5444    4.7544    0.6351 O.3       1 ATP        -0.8196
     12 O3A        -3.8657    2.6484    1.1663 O.3       1 ATP        -0.7658
     13 O5'        -1.7333    3.1724    2.4738 O.3       1 ATP        -0.5841
     14 C5'        -0.8811    2.4285    1.6206 C.3       1 ATP         0.1451
     15 C4'        -0.1994    1.3333    2.4288 C.3       1 ATP         0.0896
     16 O4'        -1.1285    0.2356    2.5840 O.3       1 ATP        -0.3980
     17 C3'         1.0324    0.7610    1.7344 C.3       1 ATP         0.0854
     18 O3'         1.9175    0.2377    2.7247 O.3       1 ATP        -0.5883
     19 C2'         0.4468   -0.3802    0.9263 C.3       1 ATP         0.0574
     20 O2'         1.3993   -1.3703    0.5961 O.3       1 ATP        -0.6005
     21 C1'        -0.6159   -0.9100    1.8769 C.3       1 ATP         0.4284
     22 N9         -1.7127   -1.6108    1.2130 N.pl3     1 ATP        -0.6877
     23 C8         -2.5476   -1.0844    0.2632 C.ar      1 ATP         0.5830
     24 N7         -3.4391   -1.9591   -0.1536 N.2       1 ATP        -0.5778
     25 C5         -3.1701   -3.1016    0.5574 C.ar      1 ATP        -0.1986
     26 C6         -3.7593   -4.3620    0.5656 C.ar      1 ATP         0.7073
     27 N6         -4.8512   -4.6493   -0.2712 N.pl3     1 ATP        -0.9340
     28 N1         -3.2659   -5.3144    1.3932 N.ar      1 ATP        -0.8111
     29 C2         -2.2122   -4.9785    2.1759 C.ar      1 ATP         0.6446
     30 N3         -1.5595   -3.7985    2.2572 N.ar      1 ATP        -0.7095
     31 C4         -2.0986   -2.9054    1.4140 C.ar      1 ATP         0.5640
     32 HOA2       -1.9637    5.5243    0.8146 H         1 ATP         0.4759
     33 H5'1       -1.4792    1.9919    0.8140 H         1 ATP         0.0806
     34 H5'2       -0.1359    3.1032    1.1865 H         1 ATP         0.0806
     35 H4'         0.0402    1.7079    3.4342 H         1 ATP         0.1213
     36 H3'         1.5907    1.4859    1.1353 H         1 ATP         0.1208
     37 HO3'        2.6839   -0.1150    2.2479 H         1 ATP         0.3965
     38 H2'        -0.0017    0.0018    0.0005 H         1 ATP         0.0768
     39 HO2'        2.0953   -0.9375    0.0709 H         1 ATP         0.4074
     40 H1'        -0.1998   -1.6319    2.6178 H         1 ATP         0.0935
     41 H8         -2.4576   -0.0639   -0.0831 H         1 ATP         0.1424
     42 HN61       -5.2371   -3.9234   -0.8448 H         1 ATP         0.4144
     43 HN62       -5.2909   -5.5485   -0.2160 H         1 ATP         0.4144
     44 H2         -1.8433   -5.7650    2.8259 H         1 ATP         0.0297
@<TRIPOS>BOND
     1    1    2 2
     2    1    3 1
     3    1    4 1
     4    1    8 1
     5    5    6 2
     6    5    7 1
     7    5    8 1
     8    5   12 1
     9    9   10 2
    10    9   11 1
    11    9   12 1
    12    9   13 1
    13   11   32 1
    14   13   14 1
    15   14   15 1
    16   14   33 1
    17   14   34 1
    18   15   16 1
    19   15   17 1
    20   15   35 1
    21   16   21 1
    22   17   18 1
    23   17   19 1
    24   17   36 1
    25   18   37 1
    26   19   20 1
    27   19   21 1
    28   19   38 1
    29   20   39 1
    30   21   22 1
    31   21   40 1
    32   22   23 ar
    33   22   31 ar
    34   23   24 ar
    35   23   41 1
    36   24   25 ar
    37   25   26 ar
    38   25   31 ar
    39   26   27 1
    40   26   28 ar
    41   27   42 1
    42   27   43 1
    43   28   29 ar
    44   29   30 ar
    45   29   44 1
    46   30   31 ar
@<TRIPOS>SUBSTRUCTURE
     1 ATP         1 GROUP 0 A     ****
@<TRIPOS>MOLECULE
[[[5-(6-aminopurin-9-yl)-3,4-dihydroxy-tetrahydrofuran-2-yl]methoxy-hydroxy-phosphoryl]oxy-oxido-phosphoryl] phosphate
   44    46     1     0     0
SMALL
USER_CHARGES

@<TRIPOS>ATOM
      1 PG         -6.6778   -0.5689    1.9983 P.3       1 ATP         1.4221
      2 O1G        -7.7810    0.0080    2.8791 O.co2     1 ATP        -0.9341
      3 O2G        -7.1384   -0.9902    0.6072 O.co2     1 ATP        -0.9341
      4 O3G        -5.7929   -1.5954    2.6981 O.co2     1 ATP        -0.9341
      5 PB         -4.8075    1.6455    2.7482 P.3       1 ATP         1.6363
      6 O1B        -5.7680    2.4603    3.5855 O.co2     1 ATP        -0.9021
      7 O2B        -3.7394    0.7940    3.3985 O.co2     1 ATP        -0.9021
      8 O3B        -5.6636    0.7015    1.7275 O.3       1 ATP        -0.7799
      9 PA         -3.0699    3.8636    1.8791 P.3       1 ATP         1.7141
     10 O1A        -3.6242    4.9794    2.7166 O.2       1 ATP        -0.8703
     11 O2A        -2.6660    4.2935    0.3727 O.3       1 ATP        -0.8196
     12 O3A        -4.0946    2.6307    1.6600 O.3       1 ATP        -0.7658
     13 O5'        -1.7333    3.1724    2.4738 O.3       1 ATP        -0.5841
     14 C5'        -0.8811    2.4285    1.6206 C.3       1 ATP         0.1451
     15 C4'        -0.1994    1.3333    2.4288 C.3       1 ATP         0.0896
     16 O4'        -1.1285    0.2356    2.5840 O.3       1 ATP        -0.3980
     17 C3'         1.0324    0.7610    1.7344 C.3       1 ATP         0.0854
     18 O3'         1.9175    0.2377    2.7247 O.3       1 ATP        -0.5883
     19 C2'         0.4468   -0.3802    0.9263 C.3       1 ATP         0.0574
     20 O2'         1.3993   -1.3703    0.5961 O.3       1 ATP        -0.6005
     21 C1'        -0.6159   -0.9100    1.8769 C.3       1 ATP         0.4284
     22 N9         -1.7127   -1.6108    1.2130 N.pl3     1 ATP        -0.6877
     23 C8         -2.5476   -1.0844    0.2632 C.ar      1 ATP         0.5830
     24 N7         -3.4391   -1.9591   -0.1536 N.2       1 ATP        -0.5778
     25 C5         -3.1701   -3.1016    0.5574 C.ar      1 ATP        -0.1986
     26 C6         -3.7593   -4.3620    0.5656 C.ar      1 ATP         0.7073
     27 N6         -4.8512   -4.6493   -0.2712 N.pl3     1 ATP        -0.9340
     28 N1         -3.2659   -5.3144    1.3932 N.ar      1 ATP        -0.8111
     29 C2         -2.2122   -4.9785    2.1759 C.ar      1 ATP         0.6446
     30 N3         -1.5595   -3.7985    2.2572 N.ar      1 ATP        -0.7095
     31 C4         -2.0986   -2.9054    1.4140 C.ar      1 ATP         0.5640
     32 HOA2       -1.9865    4.9891    0.2438 H         1 ATP         0.4759
     33 H5'1       -1.4792    1.9919    0.8140 H         1 ATP         0.0806
     34 H5'2       -0.1359    3.1032    1.1865 H         1 ATP         0.0806
     35 H4'         0.0402    1.7079    3.4342 H         1 ATP         0.1213
     36 H3'         1.5907    1.4859    1.1353 H         1 ATP         0.1208
     37 HO3'        2.6839   -0.1150    2.2479 H         1 ATP         0.3965
     38 H2'        -0.0017    0.0018    0.0005 H         1 ATP         0.0768
     39 HO2'        2.0953   -0.9375    0.0709 H         1 ATP         0.4074
     40 H1'        -0.1998   -1.6319    2.6178 H         1 ATP         0.0935
     41 H8         -2.4576   -0.0639   -0.0831 H         1 ATP         0.1424
     42 HN61       -5.2371   -3.9234   -0.8448 H         1 ATP         0.4144
     43 HN62       -5.2909   -5.5485   -0.2160 H         1 ATP         0.4144
     44 H2         -1.8433   -5.7650    2.8259 H         1 ATP         0.0297
@<TRIPOS>BOND
     1    1    2 2
     2    1    3 1
     3    1    4 1
     4    1    8 1
     5    5    6 2
     6    5    7 1
     7    5    8 1
     8    5   12 1
     9    9   10 2
    10    9   11 1
    11    9   12 1
    12    9   13 1
    13   11   32 1
    14   13   14 1
    15   14   15 1
    16   14   33 1
    17   14   34 1
    18   15   16 1
    19   15   17 1
    20   15   35 1
    21   16   21 1
    22   17   18 1
    23   17   19 1
    24   17   36 1
    25   18   37 1
    26   19   20 1
    27   19   21 1
    28   19   38 1
    29   20   39 1
    30   21   22 1
    31   21   40 1
    32   22   23 ar
    33   22   31 ar
    34   23   24 ar
    35   23   41 1
    36   24   25 ar
    37   25   26 ar
    38   25   31 ar
    39   26   27 1
    40   26   28 ar
    41   27   42 1
    42   27   43 1
    43   28   29 ar
    44   29   30 ar
    45   29   44 1
    46   30   31 ar
@<TRIPOS>SUBSTRUCTURE
     1 ATP         1 GROUP 0 A     ****
@<TRIPOS>MOLECULE
[[[5-(6-aminopurin-9-yl)-3,4-dihydroxy-tetrahydrofuran-2-yl]methoxy-hydroxy-phosphoryl]oxy-oxido-phosphoryl] phosphate
   44    46     1     0     0
SMALL
USER_CHARGES

@<TRIPOS>ATOM
      1 PG         -2.7984    2.2627   -2.8476 P.3       1 ATP         1.4221
      2 O1G        -2.0287    1.6411   -1.6870 O.co2     1 ATP        -0.9341
      3 O2G        -3.4471    1.2515   -3.7864 O.co2     1 ATP        -0.9341
      4 O3G        -2.0522    3.3851   -3.5618 O.co2     1 ATP        -0.9341
      5 PB         -4.1292    4.2266   -1.0210 P.3       1 ATP         1.6363
      6 O1B        -3.3001    5.3934   -1.5097 O.co2     1 ATP        -0.9021
      7 O2B        -5.5720    4.4174   -0.6082 O.co2     1 ATP        -0.9021
      8 O3B        -4.0683    3.0314   -2.1317 O.3       1 ATP        -0.7799
      9 PA         -2.9678    4.0282    1.6820 P.3       1 ATP         1.7141
     10 O1A        -4.1634    4.3948    2.5127 O.2       1 ATP        -0.8703
     11 O2A        -1.9459    5.2509    1.4023 O.3       1 ATP        -0.8196
     12 O3A        -3.3330    3.4923    0.1996 O.3       1 ATP        -0.7658
     13 O5'        -2.0394    2.8623    2.3117 O.3       1 ATP        -0.5841
     14 C5'        -0.8811    2.4285    1.6206 C.3       1 ATP         0.1451
     15 C4'        -0.1994    1.3333    2.4288 C.3       1 ATP         0.0896
     16 O4'        -1.1285    0.2356    2.5840 O.3       1 ATP        -0.3980
     17 C3'         1.0324    0.7610    1.7344 C.3       1 ATP         0.0854
     18 O3'         1.9175    0.2377    2.7247 O.3       1 ATP        -0.5883
     19 C2'         0.4468   -0.3802    0.9263 C.3       1 ATP         0.0574
     20 O2'         1.3993   -1.3703    0.5961 O.3       1 ATP        -0.6005
     21 C1'        -0.6159   -0.9100    1.8769 C.3       1 ATP         0.4284
     22 N9         -1.7127   -1.6108    1.2130 N.pl3     1 ATP        -0.6877
     23 C8         -2.8641   -1.0399    0.7392 C.ar      1 ATP         0.5830
     24 N7         -3.6659   -1.9257    0.1858 N.2       1 ATP        -0.5778
     25 C5         -3.0053   -3.1223    0.3069 C.ar      1 ATP        -0.1986
     26 C6         -3.3321   -4.4178   -0.0813 C.ar      1 ATP         0.7073
     27 N6         -4.5476   -4.6866   -0.7335 N.pl3     1 ATP        -0.9340
     28 N1         -2.4608   -5.4225    0.1773 N.ar      1 ATP        -0.8111
     29 C2         -1.3053   -5.1020    0.8081 C.ar      1 ATP         0.6446
     30 N3         -0.8788   -3.8921    1.2315 N.ar      1 ATP        -0.7095
     31 C4         -1.7870   -2.9477    0.9438 C.ar      1 ATP         0.5640
     32 HOA2       -1.5225    5.6993    2.1651 H         1 ATP         0.4759
     33 H5'1       -1.1757    2.0497    0.6364 H         1 ATP         0.0806
     34 H5'2       -0.2069    3.2809    1.4872 H         1 ATP         0.0806
     35 H4'         0.0402    1.7079    3.4342 H         1 ATP         0.1213
     36 H3'         1.5907    1.4859    1.1353 H         1 ATP         0.1208
     37 HO3'        2.6839   -0.1150    2.2479 H         1 ATP         0.3965
     38 H2'        -0.0017    0.0018    0.0005 H         1 ATP         0.0768
     39 HO2'        2.0953   -0.9375    0.0709 H         1 ATP         0.4074
     40 H1'        -0.1998   -1.6319    2.6178 H         1 ATP         0.0935
     41 H8         -3.0609    0.0200    0.8250 H         1 ATP         0.1424
     42 HN61       -5.2046   -3.9433   -0.8775 H         1 ATP         0.4144
     43 HN62       -4.7849   -5.6332   -0.9625 H         1 ATP         0.4144
     44 H2         -0.6318   -5.9307    0.9993 H         1 ATP         0.0297
@<TRIPOS>BOND
     1    1    2 2
     2    1    3 1
     3    1    4 1
     4    1    8 1
     5    5    6 2
     6    5    7 1
     7    5    8 1
     8    5   12 1
     9    9   10 2
    10    9   11 1
    11    9   12 1
    12    9   13 1
    13   11   32 1
    14   13   14 1
    15   14   15 1
    16   14   33 1
    17   14   34 1
    18   15   16 1
    19   15   17 1
    20   15   35 1
    21   16   21 1
    22   17   18 1
    23   17   19 1
    24   17   36 1
    25   18   37 1
    26   19   20 1
    27   19   21 1
    28   19   38 1
    29   20   39 1
    30   21   22 1
    31   21   40 1
    32   22   23 ar
    33   22   31 ar
    34   23   24 ar
    35   23   41 1
    36   24   25 ar
    37   25   26 ar
    38   25   31 ar
    39   26   27 1
    40   26   28 ar
    41   27   42 1
    42   27   43 1
    43   28   29 ar
    44   29   30 ar
    45   29   44 1
    46   30   31 ar
@<TRIPOS>SUBSTRUCTURE
     1 ATP         1 GROUP 0 A     ****
@<TRIPOS>MOLECULE
[[[5-(6-aminopurin-9-yl)-3,4-dihydroxy-tetrahydrofuran-2-yl]methoxy-hydroxy-phosphoryl]oxy-oxido-phosphoryl] phosphate
   44    46     1     0     0
SMALL
USER_CHARGES

@<TRIPOS>ATOM
      1 PG         -6.9522    5.2003   -0.8050 P.3       1 ATP         1.4221
      2 O1G        -7.3799    4.3537   -1.9992 O.co2     1 ATP        -0.9341
      3 O2G        -7.8931    5.1211    0.3922 O.co2     1 ATP        -0.9341
      4 O3G        -6.5236    6.6188   -1.1667 O.co2     1 ATP        -0.9341
      5 PB         -4.1292    4.2266   -1.0210 P.3       1 ATP         1.6363
      6 O1B        -4.3340    3.2277   -2.1381 O.co2     1 ATP        -0.9021
      7 O2B        -3.4753    5.5650   -1.2855 O.co2     1 ATP        -0.9021
      8 O3B        -5.5594    4.4932   -0.2797 O.3       1 ATP        -0.7799
      9 PA         -2.9678    4.0282    1.6820 P.3       1 ATP         1.7141
     10 O1A        -4.1634    4.3948    2.5127 O.2       1 ATP        -0.8703
     11 O2A        -1.9459    5.2509    1.4023 O.3       1 ATP        -0.8196
     12 O3A        -3.3330    3.4923    0.1996 O.3       1 ATP        -0.7658
     13 O5'        -2.0394    2.8623    2.3117 O.3       1 ATP        -0.5841
     14 C5'        -0.8811    2.4285    1.6206 C.3       1 ATP         0.1451
     15 C4'        -0.1994    1.3333    2.4288 C.3       1 ATP         0.0896
     16 O4'        -1.1285    0.2356    2.5840 O.3       1 ATP        -0.3980
     17 C3'         1.0324    0.7610    1.7344 C.3       1 ATP         0.0854
     18 O3'         1.9175    0.2377    2.7247 O.3       1 ATP        -0.5883
     19 C2'         0.4468   -0.3802    0.9263 C.3       1 ATP         0.0574
     20 O2'         1.3993   -1.3703    0.5961 O.3       1 ATP        -0.6005
     21 C1'        -0.6159   -0.9100    1.8769 C.3       1 ATP         0.4284
     22 N9         -1.7127   -1.6108    1.2130 N.pl3     1 ATP        -0.6877
     23 C8         -1.7712   -2.9546    0.9544 C.ar      1 ATP         0.5830
     24 N7         -2.8883   -3.2948    0.3462 N.2       1 ATP        -0.5778
     25 C5         -3.5834   -2.1202    0.2043 C.ar      1 ATP        -0.1986
     26 C6         -4.8225   -1.8251   -0.3554 C.ar      1 ATP         0.7073
     27 N6         -5.6154   -2.8394   -0.9189 N.pl3     1 ATP        -0.9340
     28 N1         -5.2589   -0.5425   -0.3507 N.ar      1 ATP        -0.8111
     29 C2         -4.4510    0.3913    0.2069 C.ar      1 ATP         0.6446
     30 N3         -3.2368    0.2296    0.7767 N.ar      1 ATP        -0.7095
     31 C4         -2.8684   -1.0596    0.7376 C.ar      1 ATP         0.5640
     32 HOA2       -1.5225    5.6993    2.1651 H         1 ATP         0.4759
     33 H5'1       -1.1757    2.0497    0.6364 H         1 ATP         0.0806
     34 H5'2       -0.2069    3.2809    1.4872 H         1 ATP         0.0806
     35 H4'         0.0402    1.7079    3.4342 H         1 ATP         0.1213
     36 H3'         1.5907    1.4859    1.1353 H         1 ATP         0.1208
     37 HO3'        2.6839   -0.1150    2.2479 H         1 ATP         0.3965
     38 H2'        -0.0017    0.0018    0.0005 H         1 ATP         0.0768
     39 HO2'        2.0953   -0.9375    0.0709 H         1 ATP         0.4074
     40 H1'        -0.1998   -1.6319    2.6178 H         1 ATP         0.0935
     41 H8         -0.9745   -3.6312    1.2318 H         1 ATP         0.1424
     42 HN61       -5.2619   -3.7766   -0.9586 H         1 ATP         0.4144
     43 HN62       -6.4834   -2.5990   -1.3590 H         1 ATP         0.4144
     44 H2         -4.8317    1.4071    0.1930 H         1 ATP         0.0297
@<TRIPOS>BOND
     1    1    2 2
     2    1    3 1
     3    1    4 1
     4    1    8 1
     5    5    6 2
     6    5    7 1
     7    5    8 1
     8    5   12 1
     9    9   10 2
    10    9   11 1
    11    9   12 1
    12    9   13 1
    13   11   32 1
    14   13   14 1
    15   14   15 1
    16   14   33 1
    17   14   34 1
    18   15   16 1
    19   15   17 1
    20   15   35 1
    21   16   21 1
    22   17   18 1
    23   17   19 1
    24   17   36 1
    25   18   37 1
    26   19   20 1
    27   19   21 1
    28   19   38 1
    29   20   39 1
    30   21   22 1
    31   21   40 1
    32   22   23 ar
    33   22   31 ar
    34   23   24 ar
    35   23   41 1
    36   24   25 ar
    37   25   26 ar
    38   25   31 ar
    39   26   27 1
    40   26   28 ar
    41   27   42 1
    42   27   43 1
    43   28   29 ar
    44   29   30 ar
    45   29   44 1
    46   30   31 ar
@<TRIPOS>SUBSTRUCTURE
     1 ATP         1 GROUP 0 A     ****
@<TRIPOS>MOLECULE
[[[5-(6-aminopurin-9-yl)-3,4-dihydroxy-tetrahydrofuran-2-yl]methoxy-hydroxy-phosphoryl]oxy-oxido-phosphoryl] phosphate
   44    46     1     0     0
SMALL
USER_CHARGES

@<TRIPOS>ATOM
      1 PG         -7.4943    2.3280    3.1043 P.3       1 ATP         1.4221
      2 O1G        -7.1036    1.6025    4.3876 O.co2     1 ATP        -0.9341
      3 O2G        -8.0718    3.7225    3.3202 O.co2     1 ATP        -0.9341
      4 O3G        -8.2851    1.4727    2.1196 O.co2     1 ATP        -0.9341
      5 PB         -4.9146    1.5650    1.7900 P.3       1 ATP         1.6363
      6 O1B        -4.2650    0.8864    2.9754 O.co2     1 ATP        -0.9021
      7 O2B        -5.5002    0.7540    0.6551 O.co2     1 ATP        -0.9021
      8 O3B        -6.0631    2.5918    2.3311 O.3       1 ATP        -0.7799
      9 PA         -3.0699    3.8636    1.8791 P.3       1 ATP         1.7141
     10 O1A        -3.8847    4.6220    2.8865 O.2       1 ATP        -0.8703
     11 O2A        -2.5444    4.7544    0.6351 O.3       1 ATP        -0.8196
     12 O3A        -3.8657    2.6484    1.1663 O.3       1 ATP        -0.7658
     13 O5'        -1.7333    3.1724    2.4738 O.3       1 ATP        -0.5841
     14 C5'        -0.8811    2.4285    1.6206 C.3       1 ATP         0.1451
     15 C4'        -0.1994    1.3333    2.4288 C.3       1 ATP         0.0896
     16 O4'        -1.1285    0.2356    2.5840 O.3       1 ATP        -0.3980
     17 C3'         1.0324    0.7610    1.7344 C.3       1 ATP         0.0854
     18 O3'         1.9175    0.2377    2.7247 O.3       1 ATP        -0.5883
     19 C2'         0.4468   -0.3802    0.9263 C.3       1 ATP         0.0574
     20 O2'         1.3993   -1.3703    0.5961 O.3       1 ATP        -0.6005
     21 C1'        -0.6159   -0.9100    1.8769 C.3       1 ATP         0.4284
     22 N9         -1.7127   -1.6108    1.2130 N.pl3     1 ATP        -0.6877
     23 C8         -2.5476   -1.0844    0.2632 C.ar      1 ATP         0.5830
     24 N7         -3.4391   -1.9591   -0.1536 N.2       1 ATP        -0.5778
     25 C5         -3.1701   -3.1016    0.5574 C.ar      1 ATP        -0.1986
     26 C6         -3.7593   -4.3620    0.5656 C.ar      1 ATP         0.7073
     27 N6         -4.8512   -4.6493   -0.2712 N.pl3     1 ATP        -0.9340
     28 N1         -3.2659   -5.3144    1.3932 N.ar      1 ATP        -0.8111
     29 C2         -2.2122   -4.9785    2.1759 C.ar      1 ATP         0.6446
     30 N3         -1.5595   -3.7985    2.2572 N.ar      1 ATP        -0.7095
     31 C4         -2.0986   -2.9054    1.4140 C.ar      1 ATP         0.5640
     32 HOA2       -1.9637    5.5243    0.8146 H         1 ATP         0.4759
     33 H5'1       -1.4792    1.9919    0.8140 H         1 ATP         0.0806
     34 H5'2       -0.1359    3.1032    1.1865 H         1 ATP         0.0806
     35 H4'         0.0402    1.7079    3.4342 H         1 ATP         0.1213
     36 H3'         1.5907    1.4859    1.1353 H         1 ATP         0.1208
     37 HO3'        2.6839   -0.1150    2.2479 H         1 ATP         0.3965
     38 H2'        -0.0017    0.0018    0.0005 H         1 ATP         0.0768
     39 HO2'        2.0953   -0.9375    0.0709 H         1 ATP         0.4074
     40 H1'        -0.1998   -1.6319    2.6178 H         1 ATP         0.0935
     41 H8         -2.4576   -0.0639   -0.0831 H         1 ATP         0.1424
     42 HN61       -5.2371   -3.9234   -0.8448 H         1 ATP         0.4144
     43 HN62       -5.2909   -5.5485   -0.2160 H         1 ATP         0.4144
     44 H2         -1.8433   -5.7650    2.8259 H         1 ATP         0.0297
@<TRIPOS>BOND
     1    1    2 2
     2    1    3 1
     3    1    4 1
     4    1    8 1
     5    5    6 2
     6    5    7 1
     7    5    8 1
     8    5   12 1
     9    9   10 2
    10    9   11 1
    11    9   12 1
    12    9   13 1
    13   11   32 1
    14   13   14 1
    15   14   15 1
    16   14   33 1
    17   14   34 1
    18   15   16 1
    19   15   17 1
    20   15   35 1
    21   16   21 1
    22   17   18 1
    23   17   19 1
    24   17   36 1
    25   18   37 1
    26   19   20 1
    27   19   21 1
    28   19   38 1
    29   20   39 1
    30   21   22 1
    31   21   40 1
    32   22   23 ar
    33   22   31 ar
    34   23   24 ar
    35   23   41 1
    36   24   25 ar
    37   25   26 ar
    38   25   31 ar
    39   26   27 1
    40   26   28 ar
    41   27   42 1
    42   27   43 1
    43   28   29 ar
    44   29   30 ar
    45   29   44 1
    46   30   31 ar
@<TRIPOS>SUBSTRUCTURE
     1 ATP         1 GROUP 0 A     ****
@<TRIPOS>MOLECULE
[[[5-(6-aminopurin-9-yl)-3,4-dihydroxy-tetrahydrofuran-2-yl]methoxy-hydroxy-phosphoryl]oxy-oxido-phosphoryl] phosphate
   44    46     1     0     0
SMALL
USER_CHARGES

@<TRIPOS>ATOM
      1 PG         -3.2131    6.7761   -2.2959 P.3       1 ATP         1.4221
      2 O1G        -4.5406    7.4585   -1.9833 O.co2     1 ATP        -0.9341
      3 O2G        -1.9819    7.6123   -1.9647 O.co2     1 ATP        -0.9341
      4 O3G        -3.1616    6.1087   -3.6665 O.co2     1 ATP        -0.9341
      5 PB         -4.1292    4.2266   -1.0210 P.3       1 ATP         1.6363
      6 O1B        -5.4648    4.7148   -0.5059 O.co2     1 ATP        -0.9021
      7 O2B        -4.0443    3.3469   -2.2488 O.co2     1 ATP        -0.9021
      8 O3B        -3.1451    5.5107   -1.2423 O.3       1 ATP        -0.7799
      9 PA         -2.9678    4.0282    1.6820 P.3       1 ATP         1.7141
     10 O1A        -4.1634    4.3948    2.5127 O.2       1 ATP        -0.8703
     11 O2A        -1.9459    5.2509    1.4023 O.3       1 ATP        -0.8196
     12 O3A        -3.3330    3.4923    0.1996 O.3       1 ATP        -0.7658
     13 O5'        -2.0394    2.8623    2.3117 O.3       1 ATP        -0.5841
     14 C5'        -0.8811    2.4285    1.6206 C.3       1 ATP         0.1451
     15 C4'        -0.1994    1.3333    2.4288 C.3       1 ATP         0.0896
     16 O4'        -1.1285    0.2356    2.5840 O.3       1 ATP        -0.3980
     17 C3'         1.0324    0.7610    1.7344 C.3       1 ATP         0.0854
     18 O3'         1.9175    0.2377    2.7247 O.3       1 ATP        -0.5883
     19 C2'         0.4468   -0.3802    0.9263 C.3       1 ATP         0.0574
     20 O2'         1.3993   -1.3703    0.5961 O.3       1 ATP        -0.6005
     21 C1'        -0.6159   -0.9100    1.8769 C.3       1 ATP         0.4284
     22 N9         -1.7127   -1.6108    1.2130 N.pl3     1 ATP        -0.6877
     23 C8         -1.7712   -2.9546    0.9544 C.ar      1 ATP         0.5830
     24 N7         -2.8883   -3.2948    0.3462 N.2       1 ATP        -0.5778
     25 C5         -3.5834   -2.1202    0.2043 C.ar      1 ATP        -0.1986
     26 C6         -4.8225   -1.8251   -0.3554 C.ar      1 ATP         0.7073
     27 N6         -5.6154   -2.8394   -0.9189 N.pl3     1 ATP        -0.9340
     28 N1         -5.2589   -0.5425   -0.3507 N.ar      1 ATP        -0.8111
     29 C2         -4.4510    0.3913    0.2069 C.ar      1 ATP         0.6446
     30 N3         -3.2368    0.2296    0.7767 N.ar      1 ATP        -0.7095
     31 C4         -2.8684   -1.0596    0.7376 C.ar      1 ATP         0.5640
     32 HOA2       -2.2745    6.0452    0.9299 H         1 ATP         0.4759
     33 H5'1       -1.1757    2.0497    0.6364 H         1 ATP         0.0806
     34 H5'2       -0.2069    3.2809    1.4872 H         1 ATP         0.0806
     35 H4'         0.0402    1.7079    3.4342 H         1 ATP         0.1213
     36 H3'         1.5907    1.4859    1.1353 H         1 ATP         0.1208
     37 HO3'        2.6839   -0.1150    2.2479 H         1 ATP         0.3965
     38 H2'        -0.0017    0.0018    0.0005 H         1 ATP         0.0768
     39 HO2'        2.0953   -0.9375    0.0709 H         1 ATP         0.4074
     40 H1'        -0.1998   -1.6319    2.6178 H         1 ATP         0.0935
     41 H8         -0.9745   -3.6312    1.2318 H         1 ATP         0.1424
     42 HN61       -5.2619   -3.7766   -0.9586 H         1 ATP         0.4144
     43 HN62       -6.4834   -2.5990   -1.3590 H         1 ATP         0.4144
     44 H2         -4.8317    1.4071    0.1930 H         1 ATP         0.0297
@<TRIPOS>BOND
     1    1    2 2
     2    1    3 1
     3    1    4 1
     4    1    8 1
     5    5    6 2
     6    5    7 1
     7    5    8 1
     8    5   12 1
     9    9   10 2
    10    9   11 1
    11    9   12 1
    12    9   13 1
    13   11   32 1
    14   13   14 1
    15   14   15 1
    16   14   33 1
    17   14   34 1
    18   15   16 1
    19   15   17 1
    20   15   35 1
    21   16   21 1
    22   17   18 1
    23   17   19 1
    24   17   36 1
    25   18   37 1
    26   19   20 1
    27   19   21 1
    28   19   38 1
    29   20   39 1
    30   21   22 1
    31   21   40 1
    32   22   23 ar
    33   22   31 ar
    34   23   24 ar
    35   23   41 1
    36   24   25 ar
    37   25   26 ar
    38   25   31 ar
    39   26   27 1
    40   26   28 ar
    41   27   42 1
    42   27   43 1
    43   28   29 ar
    44   29   30 ar
    45   29   44 1
    46   30   31 ar
@<TRIPOS>SUBSTRUCTURE
     1 ATP         1 GROUP 0 A     ****
@<TRIPOS>MOLECULE
[[[5-(6-aminopurin-9-yl)-3,4-dihydroxy-tetrahydrofuran-2-yl]methoxy-hydroxy-phosphoryl]oxy-oxido-phosphoryl] phosphate
   44    46     1     0     0
SMALL
USER_CHARGES

@<TRIPOS>ATOM
      1 PG         -7.2280    0.1150    0.7229 P.3       1 ATP         1.4221
      2 O1G        -7.3227    0.2792   -0.7903 O.co2     1 ATP        -0.9341
      3 O2G        -6.8901   -1.2989    1.1829 O.co2     1 ATP        -0.9341
      4 O3G        -8.3732    0.7631    1.4942 O.co2     1 ATP        -0.9341
      5 PB         -5.5738    2.5981    0.9716 P.3       1 ATP         1.6363
      6 O1B        -5.4308    2.9065   -0.5022 O.co2     1 ATP        -0.9021
      7 O2B        -6.5269    3.3874    1.8418 O.co2     1 ATP        -0.9021
      8 O3B        -5.9125    1.0109    1.1505 O.3       1 ATP        -0.7799
      9 PA         -3.0699    3.8636    1.8791 P.3       1 ATP         1.7141
     10 O1A        -3.6242    4.9794    2.7166 O.2       1 ATP        -0.8703
     11 O2A        -2.6660    4.2935    0.3727 O.3       1 ATP        -0.8196
     12 O3A        -4.0946    2.6307    1.6600 O.3       1 ATP        -0.7658
     13 O5'        -1.7333    3.1724    2.4738 O.3       1 ATP        -0.5841
     14 C5'        -0.8811    2.4285    1.6206 C.3       1 ATP         0.1451
     15 C4'        -0.1994    1.3333    2.4288 C.3       1 ATP         0.0896
     16 O4'        -1.1285    0.2356    2.5840 O.3       1 ATP        -0.3980
     17 C3'         1.0324    0.7610    1.7344 C.3       1 ATP         0.0854
     18 O3'         1.9175    0.2377    2.7247 O.3       1 ATP        -0.5883
     19 C2'         0.4468   -0.3802    0.9263 C.3       1 ATP         0.0574
     20 O2'         1.3993   -1.3703    0.5961 O.3       1 ATP        -0.6005
     21 C1'        -0.6159   -0.9100    1.8769 C.3       1 ATP         0.4284
     22 N9         -1.7127   -1.6108    1.2130 N.pl3     1 ATP        -0.6877
     23 C8         -2.8641   -1.0399    0.7392 C.ar      1 ATP         0.5830
     24 N7         -3.6659   -1.9257    0.1858 N.2       1 ATP        -0.5778
     25 C5         -3.0053   -3.1223    0.3069 C.ar      1 ATP        -0.1986
     26 C6         -3.3321   -4.4178   -0.0813 C.ar      1 ATP         0.7073
     27 N6         -4.5476   -4.6866   -0.7335 N.pl3     1 ATP        -0.9340
     28 N1         -2.4608   -5.4225    0.1773 N.ar      1 ATP        -0.8111
     29 C2         -1.3053   -5.1020    0.8081 C.ar      1 ATP         0.6446
     30 N3         -0.8788   -3.8921    1.2315 N.ar      1 ATP        -0.7095
     31 C4         -1.7870   -2.9477    0.9438 C.ar      1 ATP         0.5640
     32 HOA2       -3.3593    4.6549   -0.2196 H         1 ATP         0.4759
     33 H5'1       -1.4792    1.9919    0.8140 H         1 ATP         0.0806
     34 H5'2       -0.1359    3.1032    1.1865 H         1 ATP         0.0806
     35 H4'         0.0402    1.7079    3.4342 H         1 ATP         0.1213
     36 H3'         1.5907    1.4859    1.1353 H         1 ATP         0.1208
     37 HO3'        2.6839   -0.1150    2.2479 H         1 ATP         0.3965
     38 H2'        -0.0017    0.0018    0.0005 H         1 ATP         0.0768
     39 HO2'        2.0953   -0.9375    0.0709 H         1 ATP         0.4074
     40 H1'        -0.1998   -1.6319    2.6178 H         1 ATP         0.0935
     41 H8         -3.0609    0.0200    0.8250 H         1 ATP         0.1424
     42 HN61       -5.2046   -3.9433   -0.8775 H         1 ATP         0.4144
     43 HN62       -4.7849   -5.6332   -0.9625 H         1 ATP         0.4144
     44 H2         -0.6318   -5.9307    0.9993 H         1 ATP         0.0297
@<TRIPOS>BOND
     1    1    2 2
     2    1    3 1
     3    1    4 1
     4    1    8 1
     5    5    6 2
     6    5    7 1
     7    5    8 1
     8    5   12 1
     9    9   10 2
    10    9   11 1
    11    9   12 1
    12    9   13 1
    13   11   32 1
    14   13   14 1
    15   14   15 1
    16   14   33 1
    17   14   34 1
    18   15   16 1
    19   15   17 1
    20   15   35 1
    21   16   21 1
    22   17   18 1
    23   17   19 1
    24   17   36 1
    25   18   37 1
    26   19   20 1
    27   19   21 1
    28   19   38 1
    29   20   39 1
    30   21   22 1
    31   21   40 1
    32   22   23 ar
    33   22   31 ar
    34   23   24 ar
    35   23   41 1
    36   24   25 ar
    37   25   26 ar
    38   25   31 ar
    39   26   27 1
    40   26   28 ar
    41   27   42 1
    42   27   43 1
    43   28   29 ar
    44   29   30 ar
    45   29   44 1
    46   30   31 ar
@<TRIPOS>SUBSTRUCTURE
     1 ATP         1 GROUP 0 A     ****
@<TRIPOS>MOLECULE
[[[5-(6-aminopurin-9-yl)-3,4-dihydroxy-tetrahydrofuran-2-yl]methoxy-hydroxy-phosphoryl]oxy-oxido-phosphoryl] phosphate
   44    46     1     0     0
SMALL
USER_CHARGES

@<TRIPOS>ATOM
      1 PG         -6.9522    5.2003   -0.8050 P.3       1 ATP         1.4221
      2 O1G        -7.3799    4.3537   -1.9992 O.co2     1 ATP        -0.9341
      3 O2G        -7.8931    5.1211    0.3922 O.co2     1 ATP        -0.9341
      4 O3G        -6.5236    6.6188   -1.1667 O.co2     1 ATP        -0.9341
      5 PB         -4.1292    4.2266   -1.0210 P.3       1 ATP         1.6363
      6 O1B        -4.3340    3.2277   -2.1381 O.co2     1 ATP        -0.9021
      7 O2B        -3.4753    5.5650   -1.2855 O.co2     1 ATP        -0.9021
      8 O3B        -5.5594    4.4932   -0.2797 O.3       1 ATP        -0.7799
      9 PA         -2.9678    4.0282    1.6820 P.3       1 ATP         1.7141
     10 O1A        -4.1634    4.3948    2.5127 O.2       1 ATP        -0.8703
     11 O2A        -1.9459    5.2509    1.4023 O.3       1 ATP        -0.8196
     12 O3A        -3.3330    3.4923    0.1996 O.3       1 ATP        -0.7658
     13 O5'        -2.0394    2.8623    2.3117 O.3       1 ATP        -0.5841
     14 C5'        -0.8811    2.4285    1.6206 C.3       1 ATP         0.1451
     15 C4'        -0.1994    1.3333    2.4288 C.3       1 ATP         0.0896
     16 O4'        -1.1285    0.2356    2.5840 O.3       1 ATP        -0.3980
     17 C3'         1.0324    0.7610    1.7344 C.3       1 ATP         0.0854
     18 O3'         1.9175    0.2377    2.7247 O.3       1 ATP        -0.5883
     19 C2'         0.4468   -0.3802    0.9263 C.3       1 ATP         0.0574
     20 O2'         1.3993   -1.3703    0.5961 O.3       1 ATP        -0.6005
     21 C1'        -0.6159   -0.9100    1.8769 C.3       1 ATP         0.4284
     22 N9         -1.7127   -1.6108    1.2130 N.pl3     1 ATP        -0.6877
     23 C8         -2.8641   -1.0399    0.7392 C.ar      1 ATP         0.5830
     24 N7         -3.6659   -1.9257    0.1858 N.2       1 ATP        -0.5778
     25 C5         -3.0053   -3.1223    0.3069 C.ar      1 ATP        -0.1986
     26 C6         -3.3321   -4.4178   -0.0813 C.ar      1 ATP         0.7073
     27 N6         -4.5476   -4.6866   -0.7335 N.pl3     1 ATP        -0.9340
     28 N1         -2.4608   -5.4225    0.1773 N.ar      1 ATP        -0.8111
     29 C2         -1.3053   -5.1020    0.8081 C.ar      1 ATP         0.6446
     30 N3         -0.8788   -3.8921    1.2315 N.ar      1 ATP        -0.7095
     31 C4         -1.7870   -2.9477    0.9438 C.ar      1 ATP         0.5640
     32 HOA2       -1.5225    5.6993    2.1651 H         1 ATP         0.4759
     33 H5'1       -1.1757    2.0497    0.6364 H         1 ATP         0.0806
     34 H5'2       -0.2069    3.2809    1.4872 H         1 ATP         0.0806
     35 H4'         0.0402    1.7079    3.4342 H         1 ATP         0.1213
     36 H3'         1.5907    1.4859    1.1353 H         1 ATP         0.1208
     37 HO3'        2.6839   -0.1150    2.2479 H         1 ATP         0.3965
     38 H2'        -0.0017    0.0018    0.0005 H         1 ATP         0.0768
     39 HO2'        2.0953   -0.9375    0.0709 H         1 ATP         0.4074
     40 H1'        -0.1998   -1.6319    2.6178 H         1 ATP         0.0935
     41 H8         -3.0609    0.0200    0.8250 H         1 ATP         0.1424
     42 HN61       -5.2046   -3.9433   -0.8775 H         1 ATP         0.4144
     43 HN62       -4.7849   -5.6332   -0.9625 H         1 ATP         0.4144
     44 H2         -0.6318   -5.9307    0.9993 H         1 ATP         0.0297
@<TRIPOS>BOND
     1    1    2 2
     2    1    3 1
     3    1    4 1
     4    1    8 1
     5    5    6 2
     6    5    7 1
     7    5    8 1
     8    5   12 1
     9    9   10 2
    10    9   11 1
    11    9   12 1
    12    9   13 1
    13   11   32 1
    14   13   14 1
    15   14   15 1
    16   14   33 1
    17   14   34 1
    18   15   16 1
    19   15   17 1
    20   15   35 1
    21   16   21 1
    22   17   18 1
    23   17   19 1
    24   17   36 1
    25   18   37 1
    26   19   20 1
    27   19   21 1
    28   19   38 1
    29   20   39 1
    30   21   22 1
    31   21   40 1
    32   22   23 ar
    33   22   31 ar
    34   23   24 ar
    35   23   41 1
    36   24   25 ar
    37   25   26 ar
    38   25   31 ar
    39   26   27 1
    40   26   28 ar
    41   27   42 1
    42   27   43 1
    43   28   29 ar
    44   29   30 ar
    45   29   44 1
    46   30   31 ar
@<TRIPOS>SUBSTRUCTURE
     1 ATP         1 GROUP 0 A     ****
@<TRIPOS>MOLECULE
[[[5-(6-aminopurin-9-yl)-3,4-dihydroxy-tetrahydrofuran-2-yl]methoxy-hydroxy-phosphoryl]oxy-oxido-phosphoryl] phosphate
   44    46     1     0     0
SMALL
USER_CHARGES

@<TRIPOS>ATOM
      1 PG         -3.2131    6.7761   -2.2959 P.3       1 ATP         1.4221
      2 O1G        -4.5406    7.4585   -1.9833 O.co2     1 ATP        -0.9341
      3 O2G        -1.9819    7.6123   -1.9647 O.co2     1 ATP        -0.9341
      4 O3G        -3.1616    6.1087   -3.6665 O.co2     1 ATP        -0.9341
      5 PB         -4.1292    4.2266   -1.0210 P.3       1 ATP         1.6363
      6 O1B        -5.4648    4.7148   -0.5059 O.co2     1 ATP        -0.9021
      7 O2B        -4.0443    3.3469   -2.2488 O.co2     1 ATP        -0.9021
      8 O3B        -3.1451    5.5107   -1.2423 O.3       1 ATP        -0.7799
      9 PA         -2.9678    4.0282    1.6820 P.3       1 ATP         1.7141
     10 O1A        -4.1634    4.3948    2.5127 O.2       1 ATP        -0.8703
     11 O2A        -1.9459    5.2509    1.4023 O.3       1 ATP        -0.8196
     12 O3A        -3.3330    3.4923    0.1996 O.3       1 ATP        -0.7658
     13 O5'        -2.0394    2.8623    2.3117 O.3       1 ATP        -0.5841
     14 C5'        -0.8811    2.4285    1.6206 C.3       1 ATP         0.1451
     15 C4'        -0.1994    1.3333    2.4288 C.3       1 ATP         0.0896
     16 O4'        -1.1285    0.2356    2.5840 O.3       1 ATP        -0.3980
     17 C3'         1.0324    0.7610    1.7344 C.3       1 ATP         0.0854
     18 O3'         1.9175    0.2377    2.7247 O.3       1 ATP        -0.5883
     19 C2'         0.4468   -0.3802    0.9263 C.3       1 ATP         0.0574
     20 O2'         1.3993   -1.3703    0.5961 O.3       1 ATP        -0.6005
     21 C1'        -0.6159   -0.9100    1.8769 C.3       1 ATP         0.4284
     22 N9         -1.7127   -1.6108    1.2130 N.pl3     1 ATP        -0.6877
     23 C8         -2.8641   -1.0399    0.7392 C.ar      1 ATP         0.5830
     24 N7         -3.6659   -1.9257    0.1858 N.2       1 ATP        -0.5778
     25 C5         -3.0053   -3.1223    0.3069 C.ar      1 ATP        -0.1986
     26 C6         -3.3321   -4.4178   -0.0813 C.ar      1 ATP         0.7073
     27 N6         -4.5476   -4.6866   -0.7335 N.pl3     1 ATP        -0.9340
     28 N1         -2.4608   -5.4225    0.1773 N.ar      1 ATP        -0.8111
     29 C2         -1.3053   -5.1020    0.8081 C.ar      1 ATP         0.6446
     30 N3         -0.8788   -3.8921    1.2315 N.ar      1 ATP        -0.7095
     31 C4         -1.7870   -2.9477    0.9438 C.ar      1 ATP         0.5640
     32 HOA2       -2.2745    6.0452    0.9299 H         1 ATP         0.4759
     33 H5'1       -1.1757    2.0497    0.6364 H         1 ATP         0.0806
     34 H5'2       -0.2069    3.2809    1.4872 H         1 ATP         0.0806
     35 H4'         0.0402    1.7079    3.4342 H         1 ATP         0.1213
     36 H3'         1.5907    1.4859    1.1353 H         1 ATP         0.1208
     37 HO3'        2.6839   -0.1150    2.2479 H         1 ATP         0.3965
     38 H2'        -0.0017    0.0018    0.0005 H         1 ATP         0.0768
     39 HO2'        2.0953   -0.9375    0.0709 H         1 ATP         0.4074
     40 H1'        -0.1998   -1.6319    2.6178 H         1 ATP         0.0935
     41 H8         -3.0609    0.0200    0.8250 H         1 ATP         0.1424
     42 HN61       -5.2046   -3.9433   -0.8775 H         1 ATP         0.4144
     43 HN62       -4.7849   -5.6332   -0.9625 H         1 ATP         0.4144
     44 H2         -0.6318   -5.9307    0.9993 H         1 ATP         0.0297
@<TRIPOS>BOND
     1    1    2 2
     2    1    3 1
     3    1    4 1
     4    1    8 1
     5    5    6 2
     6    5    7 1
     7    5    8 1
     8    5   12 1
     9    9   10 2
    10    9   11 1
    11    9   12 1
    12    9   13 1
    13   11   32 1
    14   13   14 1
    15   14   15 1
    16   14   33 1
    17   14   34 1
    18   15   16 1
    19   15   17 1
    20   15   35 1
    21   16   21 1
    22   17   18 1
    23   17   19 1
    24   17   36 1
    25   18   37 1
    26   19   20 1
    27   19   21 1
    28   19   38 1
    29   20   39 1
    30   21   22 1
    31   21   40 1
    32   22   23 ar
    33   22   31 ar
    34   23   24 ar
    35   23   41 1
    36   24   25 ar
    37   25   26 ar
    38   25   31 ar
    39   26   27 1
    40   26   28 ar
    41   27   42 1
    42   27   43 1
    43   28   29 ar
    44   29   30 ar
    45   29   44 1
    46   30   31 ar
@<TRIPOS>SUBSTRUCTURE
     1 ATP         1 GROUP 0 A     ****
@<TRIPOS>MOLECULE
[[[5-(6-aminopurin-9-yl)-3,4-dihydroxy-tetrahydrofuran-2-yl]methoxy-hydroxy-phosphoryl]oxy-oxido-phosphoryl] phosphate
   44    46     1     0     0
SMALL
USER_CHARGES

@<TRIPOS>ATOM
      1 PG         -5.7577    2.9888   -2.6619 P.3       1 ATP         1.4221
      2 O1G        -5.0988    3.8566   -3.7288 O.co2     1 ATP        -0.9341
      3 O2G        -5.7246    1.4933   -2.9577 O.co2     1 ATP        -0.9341
      4 O3G        -7.1159    3.5001   -2.1923 O.co2     1 ATP        -0.9341
      5 PB         -4.3688    4.4835   -0.4708 P.3       1 ATP         1.6363
      6 O1B        -3.5178    5.3861   -1.3359 O.co2     1 ATP        -0.9021
      7 O2B        -5.6037    5.0125    0.2249 O.co2     1 ATP        -0.9021
      8 O3B        -4.7940    3.1663   -1.3369 O.3       1 ATP        -0.7799
      9 PA         -2.5918    4.4091    1.8810 P.3       1 ATP         1.7141
     10 O1A        -3.4540    5.1134    2.8882 O.2       1 ATP        -0.8703
     11 O2A        -1.4938    5.3545    1.1613 O.3       1 ATP        -0.8196
     12 O3A        -3.4123    3.7693    0.6419 O.3       1 ATP        -0.7658
     13 O5'        -1.7333    3.1724    2.4738 O.3       1 ATP        -0.5841
     14 C5'        -0.8811    2.4285    1.6206 C.3       1 ATP         0.1451
     15 C4'        -0.1994    1.3333    2.4288 C.3       1 ATP         0.0896
     16 O4'        -1.1285    0.2356    2.5840 O.3       1 ATP        -0.3980
     17 C3'         1.0324    0.7610    1.7344 C.3       1 ATP         0.0854
     18 O3'         1.9175    0.2377    2.7247 O.3       1 ATP        -0.5883
     19 C2'         0.4468   -0.3802    0.9263 C.3       1 ATP         0.0574
     20 O2'         1.3993   -1.3703    0.5961 O.3       1 ATP        -0.6005
     21 C1'        -0.6159   -0.9100    1.8769 C.3       1 ATP         0.4284
     22 N9         -1.7127   -1.6108    1.2130 N.pl3     1 ATP        -0.6877
     23 C8         -2.8641   -1.0399    0.7392 C.ar      1 ATP         0.5830
     24 N7         -3.6659   -1.9257    0.1858 N.2       1 ATP        -0.5778
     25 C5         -3.0053   -3.1223    0.3069 C.ar      1 ATP        -0.1986
     26 C6         -3.3321   -4.4178   -0.0813 C.ar      1 ATP         0.7073
     27 N6         -4.5476   -4.6866   -0.7335 N.pl3     1 ATP        -0.9340
     28 N1         -2.4608   -5.4225    0.1773 N.ar      1 ATP        -0.8111
     29 C2         -1.3053   -5.1020    0.8081 C.ar      1 ATP         0.6446
     30 N3         -0.8788   -3.8921    1.2315 N.ar      1 ATP        -0.7095
     31 C4         -1.7870   -2.9477    0.9438 C.ar      1 ATP         0.5640
     32 HOA2       -0.8194    5.8039    1.7138 H         1 ATP         0.4759
     33 H5'1       -1.4792    1.9919    0.8140 H         1 ATP         0.0806
     34 H5'2       -0.1359    3.1032    1.1865 H         1 ATP         0.0806
     35 H4'         0.0402    1.7079    3.4342 H         1 ATP         0.1213
     36 H3'         1.5907    1.4859    1.1353 H         1 ATP         0.1208
     37 HO3'        2.6839   -0.1150    2.2479 H         1 ATP         0.3965
     38 H2'        -0.0017    0.0018    0.0005 H         1 ATP         0.0768
     39 HO2'        2.0953   -0.9375    0.0709 H         1 ATP         0.4074
     40 H1'        -0.1998   -1.6319    2.6178 H         1 ATP         0.0935
     41 H8         -3.0609    0.0200    0.8250 H         1 ATP         0.1424
     42 HN61       -5.2046   -3.9433   -0.8775 H         1 ATP         0.4144
     43 HN62       -4.7849   -5.6332   -0.9625 H         1 ATP         0.4144
     44 H2         -0.6318   -5.9307    0.9993 H         1 ATP         0.0297
@<TRIPOS>BOND
     1    1    2 2
     2    1    3 1
     3    1    4 1
     4    1    8 1
     5    5    6 2
     6    5    7 1
     7    5    8 1
     8    5   12 1
     9    9   10 2
    10    9   11 1
    11    9   12 1
    12    9   13 1
    13   11   32 1
    14   13   14 1
    15   14   15 1
    16   14   33 1
    17   14   34 1
    18   15   16 1
    19   15   17 1
    20   15   35 1
    21   16   21 1
    22   17   18 1
    23   17   19 1
    24   17   36 1
    25   18   37 1
    26   19   20 1
    27   19   21 1
    28   19   38 1
    29   20   39 1
    30   21   22 1
    31   21   40 1
    32   22   23 ar
    33   22   31 ar
    34   23   24 ar
    35   23   41 1
    36   24   25 ar
    37   25   26 ar
    38   25   31 ar
    39   26   27 1
    40   26   28 ar
    41   27   42 1
    42   27   43 1
    43   28   29 ar
    44   29   30 ar
    45   29   44 1
    46   30   31 ar
@<TRIPOS>SUBSTRUCTURE
     1 ATP         1 GROUP 0 A     ****
@<TRIPOS>MOLECULE
[[[5-(6-aminopurin-9-yl)-3,4-dihydroxy-tetrahydrofuran-2-yl]methoxy-hydroxy-phosphoryl]oxy-oxido-phosphoryl] phosphate
   44    46     1     0     0
SMALL
USER_CHARGES

@<TRIPOS>ATOM
      1 PG         -5.4844    4.1844   -2.3044 P.3       1 ATP         1.4221
      2 O1G        -6.6932    4.9499   -1.7769 O.co2     1 ATP        -0.9341
      3 O2G        -4.4432    5.0539   -3.0007 O.co2     1 ATP        -0.9341
      4 O3G        -5.8356    2.9076   -3.0615 O.co2     1 ATP        -0.9341
      5 PB         -5.2238    2.6640    0.2617 P.3       1 ATP         1.6363
      6 O1B        -6.3160    3.3670    1.0368 O.co2     1 ATP        -0.9021
      7 O2B        -5.4412    1.2778   -0.3038 O.co2     1 ATP        -0.9021
      8 O3B        -4.7224    3.6380   -0.9491 O.3       1 ATP        -0.7799
      9 PA         -3.0699    3.8636    1.8791 P.3       1 ATP         1.7141
     10 O1A        -3.8847    4.6220    2.8865 O.2       1 ATP        -0.8703
     11 O2A        -2.5444    4.7544    0.6351 O.3       1 ATP        -0.8196
     12 O3A        -3.8657    2.6484    1.1663 O.3       1 ATP        -0.7658
     13 O5'        -1.7333    3.1724    2.4738 O.3       1 ATP        -0.5841
     14 C5'        -0.8811    2.4285    1.6206 C.3       1 ATP         0.1451
     15 C4'        -0.1994    1.3333    2.4288 C.3       1 ATP         0.0896
     16 O4'        -1.1285    0.2356    2.5840 O.3       1 ATP        -0.3980
     17 C3'         1.0324    0.7610    1.7344 C.3       1 ATP         0.0854
     18 O3'         1.9175    0.2377    2.7247 O.3       1 ATP        -0.5883
     19 C2'         0.4468   -0.3802    0.9263 C.3       1 ATP         0.0574
     20 O2'         1.3993   -1.3703    0.5961 O.3       1 ATP        -0.6005
     21 C1'        -0.6159   -0.9100    1.8769 C.3       1 ATP         0.4284
     22 N9         -1.7127   -1.6108    1.2130 N.pl3     1 ATP        -0.6877
     23 C8         -2.8641   -1.0399    0.7392 C.ar      1 ATP         0.5830
     24 N7         -3.6659   -1.9257    0.1858 N.2       1 ATP        -0.5778
     25 C5         -3.0053   -3.1223    0.3069 C.ar      1 ATP        -0.1986
     26 C6         -3.3321   -4.4178   -0.0813 C.ar      1 ATP         0.7073
     27 N6         -4.5476   -4.6866   -0.7335 N.pl3     1 ATP        -0.9340
     28 N1         -2.4608   -5.4225    0.1773 N.ar      1 ATP        -0.8111
     29 C2         -1.3053   -5.1020    0.8081 C.ar      1 ATP         0.6446
     30 N3         -0.8788   -3.8921    1.2315 N.ar      1 ATP        -0.7095
     31 C4         -1.7870   -2.9477    0.9438 C.ar      1 ATP         0.5640
     32 HOA2       -3.2019    5.1985    0.0584 H         1 ATP         0.4759
     33 H5'1       -1.4792    1.9919    0.8140 H         1 ATP         0.0806
     34 H5'2       -0.1359    3.1032    1.1865 H         1 ATP         0.0806
     35 H4'         0.0402    1.7079    3.4342 H         1 ATP         0.1213
     36 H3'         1.5907    1.4859    1.1353 H         1 ATP         0.1208
     37 HO3'        2.6839   -0.1150    2.2479 H         1 ATP         0.3965
     38 H2'        -0.0017    0.0018    0.0005 H         1 ATP         0.0768
     39 HO2'        2.0953   -0.9375    0.0709 H         1 ATP         0.4074
     40 H1'        -0.1998   -1.6319    2.6178 H         1 ATP         0.0935
     41 H8         -3.0609    0.0200    0.8250 H         1 ATP         0.1424
     42 HN61       -5.2046   -3.9433   -0.8775 H         1 ATP         0.4144
     43 HN62       -4.7849   -5.6332   -0.9625 H         1 ATP         0.4144
     44 H2         -0.6318   -5.9307    0.9993 H         1 ATP         0.0297
@<TRIPOS>BOND
     1    1    2 2
     2    1    3 1
     3    1    4 1
     4    1    8 1
     5    5    6 2
     6    5    7 1
     7    5    8 1
     8    5   12 1
     9    9   10 2
    10    9   11 1
    11    9   12 1
    12    9   13 1
    13   11   32 1
    14   13   14 1
    15   14   15 1
    16   14   33 1
    17   14   34 1
    18   15   16 1
    19   15   17 1
    20   15   35 1
    21   16   21 1
    22   17   18 1
    23   17   19 1
    24   17   36 1
    25   18   37 1
    26   19   20 1
    27   19   21 1
    28   19   38 1
    29   20   39 1
    30   21   22 1
    31   21   40 1
    32   22   23 ar
    33   22   31 ar
    34   23   24 ar
    35   23   41 1
    36   24   25 ar
    37   25   26 ar
    38   25   31 ar
    39   26   27 1
    40   26   28 ar
    41   27   42 1
    42   27   43 1
    43   28   29 ar
    44   29   30 ar
    45   29   44 1
    46   30   31 ar
@<TRIPOS>SUBSTRUCTURE
     1 ATP         1 GROUP 0 A     ****
@<TRIPOS>MOLECULE
[[[5-(6-aminopurin-9-yl)-3,4-dihydroxy-tetrahydrofuran-2-yl]methoxy-hydroxy-phosphoryl]oxy-oxido-phosphoryl] phosphate
   44    46     1     0     0
SMALL
USER_CHARGES

@<TRIPOS>ATOM
      1 PG         -5.0923    2.6172   -3.3547 P.3       1 ATP         1.4221
      2 O1G        -5.1440    3.8566   -4.2418 O.co2     1 ATP        -0.9341
      3 O2G        -4.4359    1.4043   -4.0050 O.co2     1 ATP        -0.9341
      4 O3G        -6.4031    2.3063   -2.6393 O.co2     1 ATP        -0.9341
      5 PB         -4.1292    4.2266   -1.0210 P.3       1 ATP         1.6363
      6 O1B        -3.3001    5.3934   -1.5097 O.co2     1 ATP        -0.9021
      7 O2B        -5.5720    4.4174   -0.6082 O.co2     1 ATP        -0.9021
      8 O3B        -4.0683    3.0314   -2.1317 O.3       1 ATP        -0.7799
      9 PA         -2.9678    4.0282    1.6820 P.3       1 ATP         1.7141
     10 O1A        -4.1634    4.3948    2.5127 O.2       1 ATP        -0.8703
     11 O2A        -1.9459    5.2509    1.4023 O.3       1 ATP        -0.8196
     12 O3A        -3.3330    3.4923    0.1996 O.3       1 ATP        -0.7658
     13 O5'        -2.0394    2.8623    2.3117 O.3       1 ATP        -0.5841
     14 C5'        -0.8811    2.4285    1.6206 C.3       1 ATP         0.1451
     15 C4'        -0.1994    1.3333    2.4288 C.3       1 ATP         0.0896
     16 O4'        -1.1285    0.2356    2.5840 O.3       1 ATP        -0.3980
     17 C3'         1.0324    0.7610    1.7344 C.3       1 ATP         0.0854
     18 O3'         1.9175    0.2377    2.7247 O.3       1 ATP        -0.5883
     19 C2'         0.4468   -0.3802    0.9263 C.3       1 ATP         0.0574
     20 O2'         1.3993   -1.3703    0.5961 O.3       1 ATP        -0.6005
     21 C1'        -0.6159   -0.9100    1.8769 C.3       1 ATP         0.4284
     22 N9         -1.7127   -1.6108    1.2130 N.pl3     1 ATP        -0.6877
     23 C8         -1.7712   -2.9546    0.9544 C.ar      1 ATP         0.5830
     24 N7         -2.8883   -3.2948    0.3462 N.2       1 ATP        -0.5778
     25 C5         -3.5834   -2.1202    0.2043 C.ar      1 ATP        -0.1986
     26 C6         -4.8225   -1.8251   -0.3554 C.ar      1 ATP         0.7073
     27 N6         -5.6154   -2.8394   -0.9189 N.pl3     1 ATP        -0.9340
     28 N1         -5.2589   -0.5425   -0.3507 N.ar      1 ATP        -0.8111
     29 C2         -4.4510    0.3913    0.2069 C.ar      1 ATP         0.6446
     30 N3         -3.2368    0.2296    0.7767 N.ar      1 ATP        -0.7095
     31 C4         -2.8684   -1.0596    0.7376 C.ar      1 ATP         0.5640
     32 HOA2       -2.2745    6.0452    0.9299 H         1 ATP         0.4759
     33 H5'1       -1.1757    2.0497    0.6364 H         1 ATP         0.0806
     34 H5'2       -0.2069    3.2809    1.4872 H         1 ATP         0.0806
     35 H4'         0.0402    1.7079    3.4342 H         1 ATP         0.1213
     36 H3'         1.5907    1.4859    1.1353 H         1 ATP         0.1208
     37 HO3'        2.1521    0.9800    3.3017 H         1 ATP         0.3965
     38 H2'        -0.0017    0.0018    0.0005 H         1 ATP         0.0768
     39 HO2'        0.9369   -2.0558    0.0825 H         1 ATP         0.4074
     40 H1'        -0.1998   -1.6319    2.6178 H         1 ATP         0.0935
     41 H8         -0.9745   -3.6312    1.2318 H         1 ATP         0.1424
     42 HN61       -5.2619   -3.7766   -0.9586 H         1 ATP         0.4144
     43 HN62       -6.4834   -2.5990   -1.3590 H         1 ATP         0.4144
     44 H2         -4.8317    1.4071    0.1930 H         1 ATP         0.0297
@<TRIPOS>BOND
     1    1    2 2
     2    1    3 1
     3    1    4 1
     4    1    8 1
     5    5    6 2
     6    5    7 1
     7    5    8 1
     8    5   12 1
     9    9   10 2
    10    9   11 1
    11    9   12 1
    12    9   13 1
    13   11   32 1
    14   13   14 1
    15   14   15 1
    16   14   33 1
    17   14   34 1
    18   15   16 1
    19   15   17 1
    20   15   35 1
    21   16   21 1
    22   17   18 1
    23   17   19 1
    24   17   36 1
    25   18   37 1
    26   19   20 1
    27   19   21 1
    28   19   38 1
    29   20   39 1
    30   21   22 1
    31   21   40 1
    32   22   23 ar
    33   22   31 ar
    34   23   24 ar
    35   23   41 1
    36   24   25 ar
    37   25   26 ar
    38   25   31 ar
    39   26   27 1
    40   26   28 ar
    41   27   42 1
    42   27   43 1
    43   28   29 ar
    44   29   30 ar
    45   29   44 1
    46   30   31 ar
@<TRIPOS>SUBSTRUCTURE
     1 ATP         1 GROUP 0 A     ****
@<TRIPOS>MOLECULE
[[[5-(6-aminopurin-9-yl)-3,4-dihydroxy-tetrahydrofuran-2-yl]methoxy-hydroxy-phosphoryl]oxy-oxido-phosphoryl] phosphate
   44    46     1     0     0
SMALL
USER_CHARGES

@<TRIPOS>ATOM
      1 PG         -4.9195    5.0535    2.5243 P.3       1 ATP         1.4221
      2 O1G        -4.8039    4.0236    3.6430 O.co2     1 ATP        -0.9341
      3 O2G        -6.1692    5.9242    2.5965 O.co2     1 ATP        -0.9341
      4 O3G        -4.6263    4.5001    1.1334 O.co2     1 ATP        -0.9341
      5 PB         -2.0598    5.8704    2.8690 P.3       1 ATP         1.6363
      6 O1B        -1.3794    7.2152    2.9972 O.co2     1 ATP        -0.9021
      7 O2B        -1.7796    4.7603    3.8578 O.co2     1 ATP        -0.9021
      8 O3B        -3.6751    6.0983    2.7994 O.3       1 ATP        -0.7799
      9 PA         -0.4427    4.8271    0.6349 P.3       1 ATP         1.7141
     10 O1A         0.6007    5.9021    0.5371 O.2       1 ATP        -0.8703
     11 O2A        -0.9489    4.2532   -0.7905 O.3       1 ATP        -0.8196
     12 O3A        -1.8097    5.2979    1.3615 O.3       1 ATP        -0.7658
     13 O5'         0.0166    3.5128    1.4591 O.3       1 ATP        -0.5841
     14 C5'        -0.8811    2.4285    1.6206 C.3       1 ATP         0.1451
     15 C4'        -0.1994    1.3333    2.4288 C.3       1 ATP         0.0896
     16 O4'        -1.1285    0.2356    2.5840 O.3       1 ATP        -0.3980
     17 C3'         1.0324    0.7610    1.7344 C.3       1 ATP         0.0854
     18 O3'         1.9175    0.2377    2.7247 O.3       1 ATP        -0.5883
     19 C2'         0.4468   -0.3802    0.9263 C.3       1 ATP         0.0574
     20 O2'         1.3993   -1.3703    0.5961 O.3       1 ATP        -0.6005
     21 C1'        -0.6159   -0.9100    1.8769 C.3       1 ATP         0.4284
     22 N9         -1.7127   -1.6108    1.2130 N.pl3     1 ATP        -0.6877
     23 C8         -1.7712   -2.9546    0.9544 C.ar      1 ATP         0.5830
     24 N7         -2.8883   -3.2948    0.3462 N.2       1 ATP        -0.5778
     25 C5         -3.5834   -2.1202    0.2043 C.ar      1 ATP        -0.1986
     26 C6         -4.8225   -1.8251   -0.3554 C.ar      1 ATP         0.7073
     27 N6         -5.6154   -2.8394   -0.9189 N.pl3     1 ATP        -0.9340
     28 N1         -5.2589   -0.5425   -0.3507 N.ar      1 ATP        -0.8111
     29 C2         -4.4510    0.3913    0.2069 C.ar      1 ATP         0.6446
     30 N3         -3.2368    0.2296    0.7767 N.ar      1 ATP        -0.7095
     31 C4         -2.8684   -1.0596    0.7376 C.ar      1 ATP         0.5640
     32 HOA2       -0.2966    3.8365   -1.3930 H         1 ATP         0.4759
     33 H5'1       -1.7777    2.7838    2.1390 H         1 ATP         0.0806
     34 H5'2       -1.1661    2.0530    0.6323 H         1 ATP         0.0806
     35 H4'         0.0402    1.7079    3.4342 H         1 ATP         0.1213
     36 H3'         1.5907    1.4859    1.1353 H         1 ATP         0.1208
     37 HO3'        2.6839   -0.1150    2.2479 H         1 ATP         0.3965
     38 H2'        -0.0017    0.0018    0.0005 H         1 ATP         0.0768
     39 HO2'        2.0953   -0.9375    0.0709 H         1 ATP         0.4074
     40 H1'        -0.1998   -1.6319    2.6178 H         1 ATP         0.0935
     41 H8         -0.9745   -3.6312    1.2318 H         1 ATP         0.1424
     42 HN61       -5.2619   -3.7766   -0.9586 H         1 ATP         0.4144
     43 HN62       -6.4834   -2.5990   -1.3590 H         1 ATP         0.4144
     44 H2         -4.8317    1.4071    0.1930 H         1 ATP         0.0297
@<TRIPOS>BOND
     1    1    2 2
     2    1    3 1
     3    1    4 1
     4    1    8 1
     5    5    6 2
     6    5    7 1
     7    5    8 1
     8    5   12 1
     9    9   10 2
    10    9   11 1
    11    9   12 1
    12    9   13 1
    13   11   32 1
    14   13   14 1
    15   14   15 1
    16   14   33 1
    17   14   34 1
    18   15   16 1
    19   15   17 1
    20   15   35 1
    21   16   21 1
    22   17   18 1
    23   17   19 1
    24   17   36 1
    25   18   37 1
    26   19   20 1
    27   19   21 1
    28   19   38 1
    29   20   39 1
    30   21   22 1
    31   21   40 1
    32   22   23 ar
    33   22   31 ar
    34   23   24 ar
    35   23   41 1
    36   24   25 ar
    37   25   26 ar
    38   25   31 ar
    39   26   27 1
    40   26   28 ar
    41   27   42 1
    42   27   43 1
    43   28   29 ar
    44   29   30 ar
    45   29   44 1
    46   30   31 ar
@<TRIPOS>SUBSTRUCTURE
     1 ATP         1 GROUP 0 A     ****
@<TRIPOS>MOLECULE
[[[5-(6-aminopurin-9-yl)-3,4-dihydroxy-tetrahydrofuran-2-yl]methoxy-hydroxy-phosphoryl]oxy-oxido-phosphoryl] phosphate
   44    46     1     0     0
SMALL
USER_CHARGES

@<TRIPOS>ATOM
      1 PG         -1.7862    4.6708   -2.6419 P.3       1 ATP         1.4221
      2 O1G        -1.4964    3.2090   -2.9658 O.co2     1 ATP        -0.9341
      3 O2G        -2.0218    5.5518   -3.8639 O.co2     1 ATP        -0.9341
      4 O3G        -0.8444    5.2798   -1.6081 O.co2     1 ATP        -0.9341
      5 PB         -3.7326    3.8965   -0.5027 P.3       1 ATP         1.6363
      6 O1B        -5.1418    4.3412   -0.1803 O.co2     1 ATP        -0.9021
      7 O2B        -3.3865    2.4277   -0.6094 O.co2     1 ATP        -0.9021
      8 O3B        -3.2431    4.6386   -1.8723 O.3       1 ATP        -0.7799
      9 PA         -2.5512    4.3890    2.1537 P.3       1 ATP         1.7141
     10 O1A        -3.7881    4.7198    2.9376 O.2       1 ATP        -0.8703
     11 O2A        -1.2598    5.2885    2.5287 O.3       1 ATP        -0.8196
     12 O3A        -2.7068    4.5958    0.5565 O.3       1 ATP        -0.7658
     13 O5'        -2.0394    2.8623    2.3117 O.3       1 ATP        -0.5841
     14 C5'        -0.8811    2.4285    1.6206 C.3       1 ATP         0.1451
     15 C4'        -0.1994    1.3333    2.4288 C.3       1 ATP         0.0896
     16 O4'        -1.1285    0.2356    2.5840 O.3       1 ATP        -0.3980
     17 C3'         1.0324    0.7610    1.7344 C.3       1 ATP         0.0854
     18 O3'         1.9175    0.2377    2.7247 O.3       1 ATP        -0.5883
     19 C2'         0.4468   -0.3802    0.9263 C.3       1 ATP         0.0574
     20 O2'         1.3993   -1.3703    0.5961 O.3       1 ATP        -0.6005
     21 C1'        -0.6159   -0.9100    1.8769 C.3       1 ATP         0.4284
     22 N9         -1.7127   -1.6108    1.2130 N.pl3     1 ATP        -0.6877
     23 C8         -2.8641   -1.0399    0.7392 C.ar      1 ATP         0.5830
     24 N7         -3.6659   -1.9257    0.1858 N.2       1 ATP        -0.5778
     25 C5         -3.0053   -3.1223    0.3069 C.ar      1 ATP        -0.1986
     26 C6         -3.3321   -4.4178   -0.0813 C.ar      1 ATP         0.7073
     27 N6         -4.5476   -4.6866   -0.7335 N.pl3     1 ATP        -0.9340
     28 N1         -2.4608   -5.4225    0.1773 N.ar      1 ATP        -0.8111
     29 C2         -1.3053   -5.1020    0.8081 C.ar      1 ATP         0.6446
     30 N3         -0.8788   -3.8921    1.2315 N.ar      1 ATP        -0.7095
     31 C4         -1.7870   -2.9477    0.9438 C.ar      1 ATP         0.5640
     32 HOA2       -0.9184    5.2684    3.4480 H         1 ATP         0.4759
     33 H5'1       -1.1757    2.0497    0.6364 H         1 ATP         0.0806
     34 H5'2       -0.2069    3.2809    1.4872 H         1 ATP         0.0806
     35 H4'         0.0402    1.7079    3.4342 H         1 ATP         0.1213
     36 H3'         1.5907    1.4859    1.1353 H         1 ATP         0.1208
     37 HO3'        2.6839   -0.1150    2.2479 H         1 ATP         0.3965
     38 H2'        -0.0017    0.0018    0.0005 H         1 ATP         0.0768
     39 HO2'        2.0953   -0.9375    0.0709 H         1 ATP         0.4074
     40 H1'        -0.1998   -1.6319    2.6178 H         1 ATP         0.0935
     41 H8         -3.0609    0.0200    0.8250 H         1 ATP         0.1424
     42 HN61       -5.2046   -3.9433   -0.8775 H         1 ATP         0.4144
     43 HN62       -4.7849   -5.6332   -0.9625 H         1 ATP         0.4144
     44 H2         -0.6318   -5.9307    0.9993 H         1 ATP         0.0297
@<TRIPOS>BOND
     1    1    2 2
     2    1    3 1
     3    1    4 1
     4    1    8 1
     5    5    6 2
     6    5    7 1
     7    5    8 1
     8    5   12 1
     9    9   10 2
    10    9   11 1
    11    9   12 1
    12    9   13 1
    13   11   32 1
    14   13   14 1
    15   14   15 1
    16   14   33 1
    17   14   34 1
    18   15   16 1
    19   15   17 1
    20   15   35 1
    21   16   21 1
    22   17   18 1
    23   17   19 1
    24   17   36 1
    25   18   37 1
    26   19   20 1
    27   19   21 1
    28   19   38 1
    29   20   39 1
    30   21   22 1
    31   21   40 1
    32   22   23 ar
    33   22   31 ar
    34   23   24 ar
    35   23   41 1
    36   24   25 ar
    37   25   26 ar
    38   25   31 ar
    39   26   27 1
    40   26   28 ar
    41   27   42 1
    42   27   43 1
    43   28   29 ar
    44   29   30 ar
    45   29   44 1
    46   30   31 ar
@<TRIPOS>SUBSTRUCTURE
     1 ATP         1 GROUP 0 A     ****
@<TRIPOS>MOLECULE
[[[5-(6-aminopurin-9-yl)-3,4-dihydroxy-tetrahydrofuran-2-yl]methoxy-hydroxy-phosphoryl]oxy-oxido-phosphoryl] phosphate
   44    46     1     0     0
SMALL
USER_CHARGES

@<TRIPOS>ATOM
      1 PG         -7.8668    3.6520    1.2631 P.3       1 ATP         1.4221
      2 O1G        -8.5343    2.3191    0.9416 O.co2     1 ATP        -0.9341
      3 O2G        -8.2096    4.2122    2.6392 O.co2     1 ATP        -0.9341
      4 O3G        -7.9455    4.6775    0.1367 O.co2     1 ATP        -0.9341
      5 PB         -5.2238    2.6640    0.2617 P.3       1 ATP         1.6363
      6 O1B        -5.6284    1.2366   -0.0324 O.co2     1 ATP        -0.9021
      7 O2B        -5.0455    3.6673   -0.8565 O.co2     1 ATP        -0.9021
      8 O3B        -6.2607    3.2943    1.3544 O.3       1 ATP        -0.7799
      9 PA         -3.0699    3.8636    1.8791 P.3       1 ATP         1.7141
     10 O1A        -3.8847    4.6220    2.8865 O.2       1 ATP        -0.8703
     11 O2A        -2.5444    4.7544    0.6351 O.3       1 ATP        -0.8196
     12 O3A        -3.8657    2.6484    1.1663 O.3       1 ATP        -0.7658
     13 O5'        -1.7333    3.1724    2.4738 O.3       1 ATP        -0.5841
     14 C5'        -0.8811    2.4285    1.6206 C.3       1 ATP         0.1451
     15 C4'        -0.1994    1.3333    2.4288 C.3       1 ATP         0.0896
     16 O4'        -1.1285    0.2356    2.5840 O.3       1 ATP        -0.3980
     17 C3'         1.0324    0.7610    1.7344 C.3       1 ATP         0.0854
     18 O3'         1.9175    0.2377    2.7247 O.3       1 ATP        -0.5883
     19 C2'         0.4468   -0.3802    0.9263 C.3       1 ATP         0.0574
     20 O2'         1.3993   -1.3703    0.5961 O.3       1 ATP        -0.6005
     21 C1'        -0.6159   -0.9100    1.8769 C.3       1 ATP         0.4284
     22 N9         -1.7127   -1.6108    1.2130 N.pl3     1 ATP        -0.6877
     23 C8         -2.8641   -1.0399    0.7392 C.ar      1 ATP         0.5830
     24 N7         -3.6659   -1.9257    0.1858 N.2       1 ATP        -0.5778
     25 C5         -3.0053   -3.1223    0.3069 C.ar      1 ATP        -0.1986
     26 C6         -3.3321   -4.4178   -0.0813 C.ar      1 ATP         0.7073
     27 N6         -4.5476   -4.6866   -0.7335 N.pl3     1 ATP        -0.9340
     28 N1         -2.4608   -5.4225    0.1773 N.ar      1 ATP        -0.8111
     29 C2         -1.3053   -5.1020    0.8081 C.ar      1 ATP         0.6446
     30 N3         -0.8788   -3.8921    1.2315 N.ar      1 ATP        -0.7095
     31 C4         -1.7870   -2.9477    0.9438 C.ar      1 ATP         0.5640
     32 HOA2       -3.2019    5.1985    0.0584 H         1 ATP         0.4759
     33 H5'1       -1.4792    1.9919    0.8140 H         1 ATP         0.0806
     34 H5'2       -0.1359    3.1032    1.1865 H         1 ATP         0.0806
     35 H4'         0.0402    1.7079    3.4342 H         1 ATP         0.1213
     36 H3'         1.5907    1.4859    1.1353 H         1 ATP         0.1208
     37 HO3'        2.1521    0.9800    3.3017 H         1 ATP         0.3965
     38 H2'        -0.0017    0.0018    0.0005 H         1 ATP         0.0768
     39 HO2'        0.9369   -2.0558    0.0825 H         1 ATP         0.4074
     40 H1'        -0.1998   -1.6319    2.6178 H         1 ATP         0.0935
     41 H8         -3.0609    0.0200    0.8250 H         1 ATP         0.1424
     42 HN61       -5.2046   -3.9433   -0.8775 H         1 ATP         0.4144
     43 HN62       -4.7849   -5.6332   -0.9625 H         1 ATP         0.4144
     44 H2         -0.6318   -5.9307    0.9993 H         1 ATP         0.0297
@<TRIPOS>BOND
     1    1    2 2
     2    1    3 1
     3    1    4 1
     4    1    8 1
     5    5    6 2
     6    5    7 1
     7    5    8 1
     8    5   12 1
     9    9   10 2
    10    9   11 1
    11    9   12 1
    12    9   13 1
    13   11   32 1
    14   13   14 1
    15   14   15 1
    16   14   33 1
    17   14   34 1
    18   15   16 1
    19   15   17 1
    20   15   35 1
    21   16   21 1
    22   17   18 1
    23   17   19 1
    24   17   36 1
    25   18   37 1
    26   19   20 1
    27   19   21 1
    28   19   38 1
    29   20   39 1
    30   21   22 1
    31   21   40 1
    32   22   23 ar
    33   22   31 ar
    34   23   24 ar
    35   23   41 1
    36   24   25 ar
    37   25   26 ar
    38   25   31 ar
    39   26   27 1
    40   26   28 ar
    41   27   42 1
    42   27   43 1
    43   28   29 ar
    44   29   30 ar
    45   29   44 1
    46   30   31 ar
@<TRIPOS>SUBSTRUCTURE
     1 ATP         1 GROUP 0 A     ****
@<TRIPOS>MOLECULE
[[[5-(6-aminopurin-9-yl)-3,4-dihydroxy-tetrahydrofuran-2-yl]methoxy-hydroxy-phosphoryl]oxy-oxido-phosphoryl] phosphate
   44    46     1     0     0
SMALL
USER_CHARGES

@<TRIPOS>ATOM
      1 PG         -4.9195    5.0535    2.5243 P.3       1 ATP         1.4221
      2 O1G        -4.8039    4.0236    3.6430 O.co2     1 ATP        -0.9341
      3 O2G        -6.1692    5.9242    2.5965 O.co2     1 ATP        -0.9341
      4 O3G        -4.6263    4.5001    1.1334 O.co2     1 ATP        -0.9341
      5 PB         -2.0598    5.8704    2.8690 P.3       1 ATP         1.6363
      6 O1B        -1.3794    7.2152    2.9972 O.co2     1 ATP        -0.9021
      7 O2B        -1.7796    4.7603    3.8578 O.co2     1 ATP        -0.9021
      8 O3B        -3.6751    6.0983    2.7994 O.3       1 ATP        -0.7799
      9 PA         -0.4427    4.8271    0.6349 P.3       1 ATP         1.7141
     10 O1A         0.6007    5.9021    0.5371 O.2       1 ATP        -0.8703
     11 O2A        -0.9489    4.2532   -0.7905 O.3       1 ATP        -0.8196
     12 O3A        -1.8097    5.2979    1.3615 O.3       1 ATP        -0.7658
     13 O5'         0.0166    3.5128    1.4591 O.3       1 ATP        -0.5841
     14 C5'        -0.8811    2.4285    1.6206 C.3       1 ATP         0.1451
     15 C4'        -0.1994    1.3333    2.4288 C.3       1 ATP         0.0896
     16 O4'        -1.1285    0.2356    2.5840 O.3       1 ATP        -0.3980
     17 C3'         1.0324    0.7610    1.7344 C.3       1 ATP         0.0854
     18 O3'         1.9175    0.2377    2.7247 O.3       1 ATP        -0.5883
     19 C2'         0.4468   -0.3802    0.9263 C.3       1 ATP         0.0574
     20 O2'         1.3993   -1.3703    0.5961 O.3       1 ATP        -0.6005
     21 C1'        -0.6159   -0.9100    1.8769 C.3       1 ATP         0.4284
     22 N9         -1.7127   -1.6108    1.2130 N.pl3     1 ATP        -0.6877
     23 C8         -2.8641   -1.0399    0.7392 C.ar      1 ATP         0.5830
     24 N7         -3.6659   -1.9257    0.1858 N.2       1 ATP        -0.5778
     25 C5         -3.0053   -3.1223    0.3069 C.ar      1 ATP        -0.1986
     26 C6         -3.3321   -4.4178   -0.0813 C.ar      1 ATP         0.7073
     27 N6         -4.5476   -4.6866   -0.7335 N.pl3     1 ATP        -0.9340
     28 N1         -2.4608   -5.4225    0.1773 N.ar      1 ATP        -0.8111
     29 C2         -1.3053   -5.1020    0.8081 C.ar      1 ATP         0.6446
     30 N3         -0.8788   -3.8921    1.2315 N.ar      1 ATP        -0.7095
     31 C4         -1.7870   -2.9477    0.9438 C.ar      1 ATP         0.5640
     32 HOA2       -0.2966    3.8365   -1.3930 H         1 ATP         0.4759
     33 H5'1       -1.7777    2.7838    2.1390 H         1 ATP         0.0806
     34 H5'2       -1.1661    2.0530    0.6323 H         1 ATP         0.0806
     35 H4'         0.0402    1.7079    3.4342 H         1 ATP         0.1213
     36 H3'         1.5907    1.4859    1.1353 H         1 ATP         0.1208
     37 HO3'        2.6839   -0.1150    2.2479 H         1 ATP         0.3965
     38 H2'        -0.0017    0.0018    0.0005 H         1 ATP         0.0768
     39 HO2'        2.0953   -0.9375    0.0709 H         1 ATP         0.4074
     40 H1'        -0.1998   -1.6319    2.6178 H         1 ATP         0.0935
     41 H8         -3.0609    0.0200    0.8250 H         1 ATP         0.1424
     42 HN61       -5.2046   -3.9433   -0.8775 H         1 ATP         0.4144
     43 HN62       -4.7849   -5.6332   -0.9625 H         1 ATP         0.4144
     44 H2         -0.6318   -5.9307    0.9993 H         1 ATP         0.0297
@<TRIPOS>BOND
     1    1    2 2
     2    1    3 1
     3    1    4 1
     4    1    8 1
     5    5    6 2
     6    5    7 1
     7    5    8 1
     8    5   12 1
     9    9   10 2
    10    9   11 1
    11    9   12 1
    12    9   13 1
    13   11   32 1
    14   13   14 1
    15   14   15 1
    16   14   33 1
    17   14   34 1
    18   15   16 1
    19   15   17 1
    20   15   35 1
    21   16   21 1
    22   17   18 1
    23   17   19 1
    24   17   36 1
    25   18   37 1
    26   19   20 1
    27   19   21 1
    28   19   38 1
    29   20   39 1
    30   21   22 1
    31   21   40 1
    32   22   23 ar
    33   22   31 ar
    34   23   24 ar
    35   23   41 1
    36   24   25 ar
    37   25   26 ar
    38   25   31 ar
    39   26   27 1
    40   26   28 ar
    41   27   42 1
    42   27   43 1
    43   28   29 ar
    44   29   30 ar
    45   29   44 1
    46   30   31 ar
@<TRIPOS>SUBSTRUCTURE
     1 ATP         1 GROUP 0 A     ****
@<TRIPOS>MOLECULE
[[[5-(6-aminopurin-9-yl)-3,4-dihydroxy-tetrahydrofuran-2-yl]methoxy-hydroxy-phosphoryl]oxy-oxido-phosphoryl] phosphate
   44    46     1     0     0
SMALL
USER_CHARGES

@<TRIPOS>ATOM
      1 PG         -4.9299    4.6973    0.1621 P.3       1 ATP         1.4221
      2 O1G        -4.1394    3.8605    1.1623 O.co2     1 ATP        -0.9341
      3 O2G        -6.1086    5.4530    0.7658 O.co2     1 ATP        -0.9341
      4 O3G        -5.2571    3.9711   -1.1388 O.co2     1 ATP        -0.9341
      5 PB         -2.4145    5.8102   -1.0202 P.3       1 ATP         1.6363
      6 O1B        -2.5232    4.9821   -2.2812 O.co2     1 ATP        -0.9021
      7 O2B        -1.8380    7.2085   -1.0562 O.co2     1 ATP        -0.9021
      8 O3B        -3.8799    5.8791   -0.3035 O.3       1 ATP        -0.7799
      9 PA         -0.0721    4.4467    0.1409 P.3       1 ATP         1.7141
     10 O1A         0.9346    5.5594    0.0921 O.2       1 ATP        -0.8703
     11 O2A         0.0170    3.4080   -1.0963 O.3       1 ATP        -0.8196
     12 O3A        -1.6106    4.9463    0.1069 O.3       1 ATP        -0.7658
     13 O5'         0.0166    3.5128    1.4591 O.3       1 ATP        -0.5841
     14 C5'        -0.8811    2.4285    1.6206 C.3       1 ATP         0.1451
     15 C4'        -0.1994    1.3333    2.4288 C.3       1 ATP         0.0896
     16 O4'        -1.1285    0.2356    2.5840 O.3       1 ATP        -0.3980
     17 C3'         1.0324    0.7610    1.7344 C.3       1 ATP         0.0854
     18 O3'         1.9175    0.2377    2.7247 O.3       1 ATP        -0.5883
     19 C2'         0.4468   -0.3802    0.9263 C.3       1 ATP         0.0574
     20 O2'         1.3993   -1.3703    0.5961 O.3       1 ATP        -0.6005
     21 C1'        -0.6159   -0.9100    1.8769 C.3       1 ATP         0.4284
     22 N9         -1.7127   -1.6108    1.2130 N.pl3     1 ATP        -0.6877
     23 C8         -1.7712   -2.9546    0.9544 C.ar      1 ATP         0.5830
     24 N7         -2.8883   -3.2948    0.3462 N.2       1 ATP        -0.5778
     25 C5         -3.5834   -2.1202    0.2043 C.ar      1 ATP        -0.1986
     26 C6         -4.8225   -1.8251   -0.3554 C.ar      1 ATP         0.7073
     27 N6         -5.6154   -2.8394   -0.9189 N.pl3     1 ATP        -0.9340
     28 N1         -5.2589   -0.5425   -0.3507 N.ar      1 ATP        -0.8111
     29 C2         -4.4510    0.3913    0.2069 C.ar      1 ATP         0.6446
     30 N3         -3.2368    0.2296    0.7767 N.ar      1 ATP        -0.7095
     31 C4         -2.8684   -1.0596    0.7376 C.ar      1 ATP         0.5640
     32 HOA2        0.8500    2.9102   -1.2390 H         1 ATP         0.4759
     33 H5'1       -1.7777    2.7838    2.1390 H         1 ATP         0.0806
     34 H5'2       -1.1661    2.0530    0.6323 H         1 ATP         0.0806
     35 H4'         0.0402    1.7079    3.4342 H         1 ATP         0.1213
     36 H3'         1.5907    1.4859    1.1353 H         1 ATP         0.1208
     37 HO3'        2.6839   -0.1150    2.2479 H         1 ATP         0.3965
     38 H2'        -0.0017    0.0018    0.0005 H         1 ATP         0.0768
     39 HO2'        2.0953   -0.9375    0.0709 H         1 ATP         0.4074
     40 H1'        -0.1998   -1.6319    2.6178 H         1 ATP         0.0935
     41 H8         -0.9745   -3.6312    1.2318 H         1 ATP         0.1424
     42 HN61       -5.2619   -3.7766   -0.9586 H         1 ATP         0.4144
     43 HN62       -6.4834   -2.5990   -1.3590 H         1 ATP         0.4144
     44 H2         -4.8317    1.4071    0.1930 H         1 ATP         0.0297
@<TRIPOS>BOND
     1    1    2 2
     2    1    3 1
     3    1    4 1
     4    1    8 1
     5    5    6 2
     6    5    7 1
     7    5    8 1
     8    5   12 1
     9    9   10 2
    10    9   11 1
    11    9   12 1
    12    9   13 1
    13   11   32 1
    14   13   14 1
    15   14   15 1
    16   14   33 1
    17   14   34 1
    18   15   16 1
    19   15   17 1
    20   15   35 1
    21   16   21 1
    22   17   18 1
    23   17   19 1
    24   17   36 1
    25   18   37 1
    26   19   20 1
    27   19   21 1
    28   19   38 1
    29   20   39 1
    30   21   22 1
    31   21   40 1
    32   22   23 ar
    33   22   31 ar
    34   23   24 ar
    35   23   41 1
    36   24   25 ar
    37   25   26 ar
    38   25   31 ar
    39   26   27 1
    40   26   28 ar
    41   27   42 1
    42   27   43 1
    43   28   29 ar
    44   29   30 ar
    45   29   44 1
    46   30   31 ar
@<TRIPOS>SUBSTRUCTURE
     1 ATP         1 GROUP 0 A     ****
@<TRIPOS>MOLECULE
[[[5-(6-aminopurin-9-yl)-3,4-dihydroxy-tetrahydrofuran-2-yl]methoxy-hydroxy-phosphoryl]oxy-oxido-phosphoryl] phosphate
   44    46     1     0     0
SMALL
USER_CHARGES

@<TRIPOS>ATOM
      1 PG         -0.3941    6.3067   -1.3355 P.3       1 ATP         1.4221
      2 O1G        -0.3578    5.0680   -2.2242 O.co2     1 ATP        -0.9341
      3 O2G        -0.1816    7.6212   -2.0784 O.co2     1 ATP        -0.9341
      4 O3G         0.4205    6.1786   -0.0523 O.co2     1 ATP        -0.9341
      5 PB         -2.8586    5.3348    0.0594 P.3       1 ATP         1.6363
      6 O1B        -4.1783    5.9911    0.3992 O.co2     1 ATP        -0.9021
      7 O2B        -2.8148    3.9898   -0.6317 O.co2     1 ATP        -0.9021
      8 O3B        -1.9520    6.3834   -0.8034 O.3       1 ATP        -0.7799
      9 PA         -2.1747    4.4070    2.7734 P.3       1 ATP         1.7141
     10 O1A        -3.4489    4.7361    3.4959 O.2       1 ATP        -0.8703
     11 O2A        -0.8289    4.6933    3.6245 O.3       1 ATP        -0.8196
     12 O3A        -1.9501    5.2528    1.4125 O.3       1 ATP        -0.7658
     13 O5'        -2.0394    2.8623    2.3117 O.3       1 ATP        -0.5841
     14 C5'        -0.8811    2.4285    1.6206 C.3       1 ATP         0.1451
     15 C4'        -0.1994    1.3333    2.4288 C.3       1 ATP         0.0896
     16 O4'        -1.1285    0.2356    2.5840 O.3       1 ATP        -0.3980
     17 C3'         1.0324    0.7610    1.7344 C.3       1 ATP         0.0854
     18 O3'         1.9175    0.2377    2.7247 O.3       1 ATP        -0.5883
     19 C2'         0.4468   -0.3802    0.9263 C.3       1 ATP         0.0574
     20 O2'         1.3993   -1.3703    0.5961 O.3       1 ATP        -0.6005
     21 C1'        -0.6159   -0.9100    1.8769 C.3       1 ATP         0.4284
     22 N9         -1.7127   -1.6108    1.2130 N.pl3     1 ATP        -0.6877
     23 C8         -1.7712   -2.9546    0.9544 C.ar      1 ATP         0.5830
     24 N7         -2.8883   -3.2948    0.3462 N.2       1 ATP        -0.5778
     25 C5         -3.5834   -2.1202    0.2043 C.ar      1 ATP        -0.1986
     26 C6         -4.8225   -1.8251   -0.3554 C.ar      1 ATP         0.7073
     27 N6         -5.6154   -2.8394   -0.9189 N.pl3     1 ATP        -0.9340
     28 N1         -5.2589   -0.5425   -0.3507 N.ar      1 ATP        -0.8111
     29 C2         -4.4510    0.3913    0.2069 C.ar      1 ATP         0.6446
     30 N3         -3.2368    0.2296    0.7767 N.ar      1 ATP        -0.7095
     31 C4         -2.8684   -1.0596    0.7376 C.ar      1 ATP         0.5640
     32 HOA2       -0.6967    4.2235    4.4754 H         1 ATP         0.4759
     33 H5'1       -1.1757    2.0497    0.6364 H         1 ATP         0.0806
     34 H5'2       -0.2069    3.2809    1.4872 H         1 ATP         0.0806
     35 H4'         0.0402    1.7079    3.4342 H         1 ATP         0.1213
     36 H3'         1.5907    1.4859    1.1353 H         1 ATP         0.1208
     37 HO3'        2.6839   -0.1150    2.2479 H         1 ATP         0.3965
     38 H2'        -0.0017    0.0018    0.0005 H         1 ATP         0.0768
     39 HO2'        2.0953   -0.9375    0.0709 H         1 ATP         0.4074
     40 H1'        -0.1998   -1.6319    2.6178 H         1 ATP         0.0935
     41 H8         -0.9745   -3.6312    1.2318 H         1 ATP         0.1424
     42 HN61       -5.2619   -3.7766   -0.9586 H         1 ATP         0.4144
     43 HN62       -6.4834   -2.5990   -1.3590 H         1 ATP         0.4144
     44 H2         -4.8317    1.4071    0.1930 H         1 ATP         0.0297
@<TRIPOS>BOND
     1    1    2 2
     2    1    3 1
     3    1    4 1
     4    1    8 1
     5    5    6 2
     6    5    7 1
     7    5    8 1
     8    5   12 1
     9    9   10 2
    10    9   11 1
    11    9   12 1
    12    9   13 1
    13   11   32 1
    14   13   14 1
    15   14   15 1
    16   14   33 1
    17   14   34 1
    18   15   16 1
    19   15   17 1
    20   15   35 1
    21   16   21 1
    22   17   18 1
    23   17   19 1
    24   17   36 1
    25   18   37 1
    26   19   20 1
    27   19   21 1
    28   19   38 1
    29   20   39 1
    30   21   22 1
    31   21   40 1
    32   22   23 ar
    33   22   31 ar
    34   23   24 ar
    35   23   41 1
    36   24   25 ar
    37   25   26 ar
    38   25   31 ar
    39   26   27 1
    40   26   28 ar
    41   27   42 1
    42   27   43 1
    43   28   29 ar
    44   29   30 ar
    45   29   44 1
    46   30   31 ar
@<TRIPOS>SUBSTRUCTURE
     1 ATP         1 GROUP 0 A     ****
@<TRIPOS>MOLECULE
[[[5-(6-aminopurin-9-yl)-3,4-dihydroxy-tetrahydrofuran-2-yl]methoxy-hydroxy-phosphoryl]oxy-oxido-phosphoryl] phosphate
   44    46     1     0     0
SMALL
USER_CHARGES

@<TRIPOS>ATOM
      1 PG         -0.9468    5.6236    5.3832 P.3       1 ATP         1.4221
      2 O1G        -2.3398    5.6808    6.0011 O.co2     1 ATP        -0.9341
      3 O2G        -0.1148    4.4213    5.8161 O.co2     1 ATP        -0.9341
      4 O3G        -0.1920    6.9485    5.4210 O.co2     1 ATP        -0.9341
      5 PB         -2.0363    6.2516    2.6661 P.3       1 ATP         1.6363
      6 O1B        -3.5066    6.2483    3.0210 O.co2     1 ATP        -0.9021
      7 O2B        -1.2926    7.5507    2.4474 O.co2     1 ATP        -0.9021
      8 O3B        -1.2211    5.3759    3.7772 O.3       1 ATP        -0.7799
      9 PA         -0.4427    4.8271    0.6349 P.3       1 ATP         1.7141
     10 O1A         0.6007    5.9021    0.5371 O.2       1 ATP        -0.8703
     11 O2A        -0.9489    4.2532   -0.7905 O.3       1 ATP        -0.8196
     12 O3A        -1.8097    5.2979    1.3615 O.3       1 ATP        -0.7658
     13 O5'         0.0166    3.5128    1.4591 O.3       1 ATP        -0.5841
     14 C5'        -0.8811    2.4285    1.6206 C.3       1 ATP         0.1451
     15 C4'        -0.1994    1.3333    2.4288 C.3       1 ATP         0.0896
     16 O4'        -1.1285    0.2356    2.5840 O.3       1 ATP        -0.3980
     17 C3'         1.0324    0.7610    1.7344 C.3       1 ATP         0.0854
     18 O3'         1.9175    0.2377    2.7247 O.3       1 ATP        -0.5883
     19 C2'         0.4468   -0.3802    0.9263 C.3       1 ATP         0.0574
     20 O2'         1.3993   -1.3703    0.5961 O.3       1 ATP        -0.6005
     21 C1'        -0.6159   -0.9100    1.8769 C.3       1 ATP         0.4284
     22 N9         -1.7127   -1.6108    1.2130 N.pl3     1 ATP        -0.6877
     23 C8         -2.8641   -1.0399    0.7392 C.ar      1 ATP         0.5830
     24 N7         -3.6659   -1.9257    0.1858 N.2       1 ATP        -0.5778
     25 C5         -3.0053   -3.1223    0.3069 C.ar      1 ATP        -0.1986
     26 C6         -3.3321   -4.4178   -0.0813 C.ar      1 ATP         0.7073
     27 N6         -4.5476   -4.6866   -0.7335 N.pl3     1 ATP        -0.9340
     28 N1         -2.4608   -5.4225    0.1773 N.ar      1 ATP        -0.8111
     29 C2         -1.3053   -5.1020    0.8081 C.ar      1 ATP         0.6446
     30 N3         -0.8788   -3.8921    1.2315 N.ar      1 ATP        -0.7095
     31 C4         -1.7870   -2.9477    0.9438 C.ar      1 ATP         0.5640
     32 HOA2       -0.2966    3.8365   -1.3930 H         1 ATP         0.4759
     33 H5'1       -1.7777    2.7838    2.1390 H         1 ATP         0.0806
     34 H5'2       -1.1661    2.0530    0.6323 H         1 ATP         0.0806
     35 H4'         0.0402    1.7079    3.4342 H         1 ATP         0.1213
     36 H3'         1.5907    1.4859    1.1353 H         1 ATP         0.1208
     37 HO3'        2.6839   -0.1150    2.2479 H         1 ATP         0.3965
     38 H2'        -0.0017    0.0018    0.0005 H         1 ATP         0.0768
     39 HO2'        2.0953   -0.9375    0.0709 H         1 ATP         0.4074
     40 H1'        -0.1998   -1.6319    2.6178 H         1 ATP         0.0935
     41 H8         -3.0609    0.0200    0.8250 H         1 ATP         0.1424
     42 HN61       -5.2046   -3.9433   -0.8775 H         1 ATP         0.4144
     43 HN62       -4.7849   -5.6332   -0.9625 H         1 ATP         0.4144
     44 H2         -0.6318   -5.9307    0.9993 H         1 ATP         0.0297
@<TRIPOS>BOND
     1    1    2 2
     2    1    3 1
     3    1    4 1
     4    1    8 1
     5    5    6 2
     6    5    7 1
     7    5    8 1
     8    5   12 1
     9    9   10 2
    10    9   11 1
    11    9   12 1
    12    9   13 1
    13   11   32 1
    14   13   14 1
    15   14   15 1
    16   14   33 1
    17   14   34 1
    18   15   16 1
    19   15   17 1
    20   15   35 1
    21   16   21 1
    22   17   18 1
    23   17   19 1
    24   17   36 1
    25   18   37 1
    26   19   20 1
    27   19   21 1
    28   19   38 1
    29   20   39 1
    30   21   22 1
    31   21   40 1
    32   22   23 ar
    33   22   31 ar
    34   23   24 ar
    35   23   41 1
    36   24   25 ar
    37   25   26 ar
    38   25   31 ar
    39   26   27 1
    40   26   28 ar
    41   27   42 1
    42   27   43 1
    43   28   29 ar
    44   29   30 ar
    45   29   44 1
    46   30   31 ar
@<TRIPOS>SUBSTRUCTURE
     1 ATP         1 GROUP 0 A     ****
@<TRIPOS>MOLECULE
[[[5-(6-aminopurin-9-yl)-3,4-dihydroxy-tetrahydrofuran-2-yl]methoxy-hydroxy-phosphoryl]oxy-oxido-phosphoryl] phosphate
   44    46     1     0     0
SMALL
USER_CHARGES

@<TRIPOS>ATOM
      1 PG         -0.7785    8.3616    3.9257 P.3       1 ATP         1.4221
      2 O1G        -0.1664    7.6003    5.0968 O.co2     1 ATP        -0.9341
      3 O2G         0.1855    9.3060    3.2159 O.co2     1 ATP        -0.9341
      4 O3G        -2.1431    8.9743    4.2241 O.co2     1 ATP        -0.9341
      5 PB         -2.0598    5.8704    2.8690 P.3       1 ATP         1.6363
      6 O1B        -1.4748    4.8925    3.8635 O.co2     1 ATP        -0.9021
      7 O2B        -3.4990    6.3233    2.9790 O.co2     1 ATP        -0.9021
      8 O3B        -1.1091    7.1966    2.8080 O.3       1 ATP        -0.7799
      9 PA         -0.4427    4.8271    0.6349 P.3       1 ATP         1.7141
     10 O1A         0.6007    5.9021    0.5371 O.2       1 ATP        -0.8703
     11 O2A        -0.9489    4.2532   -0.7905 O.3       1 ATP        -0.8196
     12 O3A        -1.8097    5.2979    1.3615 O.3       1 ATP        -0.7658
     13 O5'         0.0166    3.5128    1.4591 O.3       1 ATP        -0.5841
     14 C5'        -0.8811    2.4285    1.6206 C.3       1 ATP         0.1451
     15 C4'        -0.1994    1.3333    2.4288 C.3       1 ATP         0.0896
     16 O4'        -1.1285    0.2356    2.5840 O.3       1 ATP        -0.3980
     17 C3'         1.0324    0.7610    1.7344 C.3       1 ATP         0.0854
     18 O3'         1.9175    0.2377    2.7247 O.3       1 ATP        -0.5883
     19 C2'         0.4468   -0.3802    0.9263 C.3       1 ATP         0.0574
     20 O2'         1.3993   -1.3703    0.5961 O.3       1 ATP        -0.6005
     21 C1'        -0.6159   -0.9100    1.8769 C.3       1 ATP         0.4284
     22 N9         -1.7127   -1.6108    1.2130 N.pl3     1 ATP        -0.6877
     23 C8         -2.8641   -1.0399    0.7392 C.ar      1 ATP         0.5830
     24 N7         -3.6659   -1.9257    0.1858 N.2       1 ATP        -0.5778
     25 C5         -3.0053   -3.1223    0.3069 C.ar      1 ATP        -0.1986
     26 C6         -3.3321   -4.4178   -0.0813 C.ar      1 ATP         0.7073
     27 N6         -4.5476   -4.6866   -0.7335 N.pl3     1 ATP        -0.9340
     28 N1         -2.4608   -5.4225    0.1773 N.ar      1 ATP        -0.8111
     29 C2         -1.3053   -5.1020    0.8081 C.ar      1 ATP         0.6446
     30 N3         -0.8788   -3.8921    1.2315 N.ar      1 ATP        -0.7095
     31 C4         -1.7870   -2.9477    0.9438 C.ar      1 ATP         0.5640
     32 HOA2       -0.2966    3.8365   -1.3930 H         1 ATP         0.4759
     33 H5'1       -1.7777    2.7838    2.1390 H         1 ATP         0.0806
     34 H5'2       -1.1661    2.0530    0.6323 H         1 ATP         0.0806
     35 H4'         0.0402    1.7079    3.4342 H         1 ATP         0.1213
     36 H3'         1.5907    1.4859    1.1353 H         1 ATP         0.1208
     37 HO3'        2.6839   -0.1150    2.2479 H         1 ATP         0.3965
     38 H2'        -0.0017    0.0018    0.0005 H         1 ATP         0.0768
     39 HO2'        2.0953   -0.9375    0.0709 H         1 ATP         0.4074
     40 H1'        -0.1998   -1.6319    2.6178 H         1 ATP         0.0935
     41 H8         -3.0609    0.0200    0.8250 H         1 ATP         0.1424
     42 HN61       -5.2046   -3.9433   -0.8775 H         1 ATP         0.4144
     43 HN62       -4.7849   -5.6332   -0.9625 H         1 ATP         0.4144
     44 H2         -0.6318   -5.9307    0.9993 H         1 ATP         0.0297
@<TRIPOS>BOND
     1    1    2 2
     2    1    3 1
     3    1    4 1
     4    1    8 1
     5    5    6 2
     6    5    7 1
     7    5    8 1
     8    5   12 1
     9    9   10 2
    10    9   11 1
    11    9   12 1
    12    9   13 1
    13   11   32 1
    14   13   14 1
    15   14   15 1
    16   14   33 1
    17   14   34 1
    18   15   16 1
    19   15   17 1
    20   15   35 1
    21   16   21 1
    22   17   18 1
    23   17   19 1
    24   17   36 1
    25   18   37 1
    26   19   20 1
    27   19   21 1
    28   19   38 1
    29   20   39 1
    30   21   22 1
    31   21   40 1
    32   22   23 ar
    33   22   31 ar
    34   23   24 ar
    35   23   41 1
    36   24   25 ar
    37   25   26 ar
    38   25   31 ar
    39   26   27 1
    40   26   28 ar
    41   27   42 1
    42   27   43 1
    43   28   29 ar
    44   29   30 ar
    45   29   44 1
    46   30   31 ar
@<TRIPOS>SUBSTRUCTURE
     1 ATP         1 GROUP 0 A     ****
@<TRIPOS>MOLECULE
[[[5-(6-aminopurin-9-yl)-3,4-dihydroxy-tetrahydrofuran-2-yl]methoxy-hydroxy-phosphoryl]oxy-oxido-phosphoryl] phosphate
   44    46     1     0     0
SMALL
USER_CHARGES

@<TRIPOS>ATOM
      1 PG         -6.4329    2.3962    0.7209 P.3       1 ATP         1.4221
      2 O1G        -5.3367    1.8930    1.6539 O.co2     1 ATP        -0.9341
      3 O2G        -7.6945    2.8740    1.4316 O.co2     1 ATP        -0.9341
      4 O3G        -6.6990    1.4891   -0.4762 O.co2     1 ATP        -0.9341
      5 PB         -4.4639    4.0060   -0.8588 P.3       1 ATP         1.6363
      6 O1B        -4.4889    3.0615   -2.0398 O.co2     1 ATP        -0.9021
      7 O2B        -4.2940    5.4959   -1.0588 O.co2     1 ATP        -0.9021
      8 O3B        -5.8013    3.7600    0.0449 O.3       1 ATP        -0.7799
      9 PA         -2.9678    4.0282    1.6820 P.3       1 ATP         1.7141
     10 O1A        -4.1634    4.3948    2.5127 O.2       1 ATP        -0.8703
     11 O2A        -1.9459    5.2509    1.4023 O.3       1 ATP        -0.8196
     12 O3A        -3.3330    3.4923    0.1996 O.3       1 ATP        -0.7658
     13 O5'        -2.0394    2.8623    2.3117 O.3       1 ATP        -0.5841
     14 C5'        -0.8811    2.4285    1.6206 C.3       1 ATP         0.1451
     15 C4'        -0.1994    1.3333    2.4288 C.3       1 ATP         0.0896
     16 O4'        -1.1285    0.2356    2.5840 O.3       1 ATP        -0.3980
     17 C3'         1.0324    0.7610    1.7344 C.3       1 ATP         0.0854
     18 O3'         1.9175    0.2377    2.7247 O.3       1 ATP        -0.5883
     19 C2'         0.4468   -0.3802    0.9263 C.3       1 ATP         0.0574
     20 O2'         1.3993   -1.3703    0.5961 O.3       1 ATP        -0.6005
     21 C1'        -0.6159   -0.9100    1.8769 C.3       1 ATP         0.4284
     22 N9         -1.7127   -1.6108    1.2130 N.pl3     1 ATP        -0.6877
     23 C8         -2.8641   -1.0399    0.7392 C.ar      1 ATP         0.5830
     24 N7         -3.6659   -1.9257    0.1858 N.2       1 ATP        -0.5778
     25 C5         -3.0053   -3.1223    0.3069 C.ar      1 ATP        -0.1986
     26 C6         -3.3321   -4.4178   -0.0813 C.ar      1 ATP         0.7073
     27 N6         -4.5476   -4.6866   -0.7335 N.pl3     1 ATP        -0.9340
     28 N1         -2.4608   -5.4225    0.1773 N.ar      1 ATP        -0.8111
     29 C2         -1.3053   -5.1020    0.8081 C.ar      1 ATP         0.6446
     30 N3         -0.8788   -3.8921    1.2315 N.ar      1 ATP        -0.7095
     31 C4         -1.7870   -2.9477    0.9438 C.ar      1 ATP         0.5640
     32 HOA2       -1.5225    5.6993    2.1651 H         1 ATP         0.4759
     33 H5'1       -1.1757    2.0497    0.6364 H         1 ATP         0.0806
     34 H5'2       -0.2069    3.2809    1.4872 H         1 ATP         0.0806
     35 H4'         0.0402    1.7079    3.4342 H         1 ATP         0.1213
     36 H3'         1.5907    1.4859    1.1353 H         1 ATP         0.1208
     37 HO3'        2.6839   -0.1150    2.2479 H         1 ATP         0.3965
     38 H2'        -0.0017    0.0018    0.0005 H         1 ATP         0.0768
     39 HO2'        2.0953   -0.9375    0.0709 H         1 ATP         0.4074
     40 H1'        -0.1998   -1.6319    2.6178 H         1 ATP         0.0935
     41 H8         -3.0609    0.0200    0.8250 H         1 ATP         0.1424
     42 HN61       -5.2046   -3.9433   -0.8775 H         1 ATP         0.4144
     43 HN62       -4.7849   -5.6332   -0.9625 H         1 ATP         0.4144
     44 H2         -0.6318   -5.9307    0.9993 H         1 ATP         0.0297
@<TRIPOS>BOND
     1    1    2 2
     2    1    3 1
     3    1    4 1
     4    1    8 1
     5    5    6 2
     6    5    7 1
     7    5    8 1
     8    5   12 1
     9    9   10 2
    10    9   11 1
    11    9   12 1
    12    9   13 1
    13   11   32 1
    14   13   14 1
    15   14   15 1
    16   14   33 1
    17   14   34 1
    18   15   16 1
    19   15   17 1
    20   15   35 1
    21   16   21 1
    22   17   18 1
    23   17   19 1
    24   17   36 1
    25   18   37 1
    26   19   20 1
    27   19   21 1
    28   19   38 1
    29   20   39 1
    30   21   22 1
    31   21   40 1
    32   22   23 ar
    33   22   31 ar
    34   23   24 ar
    35   23   41 1
    36   24   25 ar
    37   25   26 ar
    38   25   31 ar
    39   26   27 1
    40   26   28 ar
    41   27   42 1
    42   27   43 1
    43   28   29 ar
    44   29   30 ar
    45   29   44 1
    46   30   31 ar
@<TRIPOS>SUBSTRUCTURE
     1 ATP         1 GROUP 0 A     ****
@<TRIPOS>MOLECULE
[[[5-(6-aminopurin-9-yl)-3,4-dihydroxy-tetrahydrofuran-2-yl]methoxy-hydroxy-phosphoryl]oxy-oxido-phosphoryl] phosphate
   44    46     1     0     0
SMALL
USER_CHARGES

@<TRIPOS>ATOM
      1 PG         -4.9299    4.6973    0.1621 P.3       1 ATP         1.4221
      2 O1G        -4.1394    3.8605    1.1623 O.co2     1 ATP        -0.9341
      3 O2G        -6.1086    5.4530    0.7658 O.co2     1 ATP        -0.9341
      4 O3G        -5.2571    3.9711   -1.1388 O.co2     1 ATP        -0.9341
      5 PB         -2.4145    5.8102   -1.0202 P.3       1 ATP         1.6363
      6 O1B        -2.5232    4.9821   -2.2812 O.co2     1 ATP        -0.9021
      7 O2B        -1.8380    7.2085   -1.0562 O.co2     1 ATP        -0.9021
      8 O3B        -3.8799    5.8791   -0.3035 O.3       1 ATP        -0.7799
      9 PA         -0.0721    4.4467    0.1409 P.3       1 ATP         1.7141
     10 O1A         0.9346    5.5594    0.0921 O.2       1 ATP        -0.8703
     11 O2A         0.0170    3.4080   -1.0963 O.3       1 ATP        -0.8196
     12 O3A        -1.6106    4.9463    0.1069 O.3       1 ATP        -0.7658
     13 O5'         0.0166    3.5128    1.4591 O.3       1 ATP        -0.5841
     14 C5'        -0.8811    2.4285    1.6206 C.3       1 ATP         0.1451
     15 C4'        -0.1994    1.3333    2.4288 C.3       1 ATP         0.0896
     16 O4'        -1.1285    0.2356    2.5840 O.3       1 ATP        -0.3980
     17 C3'         1.0324    0.7610    1.7344 C.3       1 ATP         0.0854
     18 O3'         1.9175    0.2377    2.7247 O.3       1 ATP        -0.5883
     19 C2'         0.4468   -0.3802    0.9263 C.3       1 ATP         0.0574
     20 O2'         1.3993   -1.3703    0.5961 O.3       1 ATP        -0.6005
     21 C1'        -0.6159   -0.9100    1.8769 C.3       1 ATP         0.4284
     22 N9         -1.7127   -1.6108    1.2130 N.pl3     1 ATP        -0.6877
     23 C8         -2.8641   -1.0399    0.7392 C.ar      1 ATP         0.5830
     24 N7         -3.6659   -1.9257    0.1858 N.2       1 ATP        -0.5778
     25 C5         -3.0053   -3.1223    0.3069 C.ar      1 ATP        -0.1986
     26 C6         -3.3321   -4.4178   -0.0813 C.ar      1 ATP         0.7073
     27 N6         -4.5476   -4.6866   -0.7335 N.pl3     1 ATP        -0.9340
     28 N1         -2.4608   -5.4225    0.1773 N.ar      1 ATP        -0.8111
     29 C2         -1.3053   -5.1020    0.8081 C.ar      1 ATP         0.6446
     30 N3         -0.8788   -3.8921    1.2315 N.ar      1 ATP        -0.7095
     31 C4         -1.7870   -2.9477    0.9438 C.ar      1 ATP         0.5640
     32 HOA2        0.8500    2.9102   -1.2390 H         1 ATP         0.4759
     33 H5'1       -1.7777    2.7838    2.1390 H         1 ATP         0.0806
     34 H5'2       -1.1661    2.0530    0.6323 H         1 ATP         0.0806
     35 H4'         0.0402    1.7079    3.4342 H         1 ATP         0.1213
     36 H3'         1.5907    1.4859    1.1353 H         1 ATP         0.1208
     37 HO3'        2.6839   -0.1150    2.2479 H         1 ATP         0.3965
     38 H2'        -0.0017    0.0018    0.0005 H         1 ATP         0.0768
     39 HO2'        2.0953   -0.9375    0.0709 H         1 ATP         0.4074
     40 H1'        -0.1998   -1.6319    2.6178 H         1 ATP         0.0935
     41 H8         -3.0609    0.0200    0.8250 H         1 ATP         0.1424
     42 HN61       -5.2046   -3.9433   -0.8775 H         1 ATP         0.4144
     43 HN62       -4.7849   -5.6332   -0.9625 H         1 ATP         0.4144
     44 H2         -0.6318   -5.9307    0.9993 H         1 ATP         0.0297
@<TRIPOS>BOND
     1    1    2 2
     2    1    3 1
     3    1    4 1
     4    1    8 1
     5    5    6 2
     6    5    7 1
     7    5    8 1
     8    5   12 1
     9    9   10 2
    10    9   11 1
    11    9   12 1
    12    9   13 1
    13   11   32 1
    14   13   14 1
    15   14   15 1
    16   14   33 1
    17   14   34 1
    18   15   16 1
    19   15   17 1
    20   15   35 1
    21   16   21 1
    22   17   18 1
    23   17   19 1
    24   17   36 1
    25   18   37 1
    26   19   20 1
    27   19   21 1
    28   19   38 1
    29   20   39 1
    30   21   22 1
    31   21   40 1
    32   22   23 ar
    33   22   31 ar
    34   23   24 ar
    35   23   41 1
    36   24   25 ar
    37   25   26 ar
    38   25   31 ar
    39   26   27 1
    40   26   28 ar
    41   27   42 1
    42   27   43 1
    43   28   29 ar
    44   29   30 ar
    45   29   44 1
    46   30   31 ar
@<TRIPOS>SUBSTRUCTURE
     1 ATP         1 GROUP 0 A     ****
@<TRIPOS>MOLECULE
[[[5-(6-aminopurin-9-yl)-3,4-dihydroxy-tetrahydrofuran-2-yl]methoxy-hydroxy-phosphoryl]oxy-oxido-phosphoryl] phosphate
   44    46     1     0     0
SMALL
USER_CHARGES

@<TRIPOS>ATOM
      1 PG         -5.3299    7.0966    2.5436 P.3       1 ATP         1.4221
      2 O1G        -6.2172    6.8871    1.3212 O.co2     1 ATP        -0.9341
      3 O2G        -5.8365    6.4202    3.8128 O.co2     1 ATP        -0.9341
      4 O3G        -4.8760    8.5386    2.7460 O.co2     1 ATP        -0.9341
      5 PB         -2.8641    6.4777    0.9623 P.3       1 ATP         1.6363
      6 O1B        -3.5353    6.1088   -0.3419 O.co2     1 ATP        -0.9021
      7 O2B        -2.1767    7.8147    1.1315 O.co2     1 ATP        -0.9021
      8 O3B        -3.9363    6.2956    2.1801 O.3       1 ATP        -0.7799
      9 PA         -0.4427    4.8271    0.6349 P.3       1 ATP         1.7141
     10 O1A         0.6007    5.9021    0.5371 O.2       1 ATP        -0.8703
     11 O2A        -0.9489    4.2532   -0.7905 O.3       1 ATP        -0.8196
     12 O3A        -1.8097    5.2979    1.3615 O.3       1 ATP        -0.7658
     13 O5'         0.0166    3.5128    1.4591 O.3       1 ATP        -0.5841
     14 C5'        -0.8811    2.4285    1.6206 C.3       1 ATP         0.1451
     15 C4'        -0.1994    1.3333    2.4288 C.3       1 ATP         0.0896
     16 O4'        -1.1285    0.2356    2.5840 O.3       1 ATP        -0.3980
     17 C3'         1.0324    0.7610    1.7344 C.3       1 ATP         0.0854
     18 O3'         1.9175    0.2377    2.7247 O.3       1 ATP        -0.5883
     19 C2'         0.4468   -0.3802    0.9263 C.3       1 ATP         0.0574
     20 O2'         1.3993   -1.3703    0.5961 O.3       1 ATP        -0.6005
     21 C1'        -0.6159   -0.9100    1.8769 C.3       1 ATP         0.4284
     22 N9         -1.7127   -1.6108    1.2130 N.pl3     1 ATP        -0.6877
     23 C8         -2.8641   -1.0399    0.7392 C.ar      1 ATP         0.5830
     24 N7         -3.6659   -1.9257    0.1858 N.2       1 ATP        -0.5778
     25 C5         -3.0053   -3.1223    0.3069 C.ar      1 ATP        -0.1986
     26 C6         -3.3321   -4.4178   -0.0813 C.ar      1 ATP         0.7073
     27 N6         -4.5476   -4.6866   -0.7335 N.pl3     1 ATP        -0.9340
     28 N1         -2.4608   -5.4225    0.1773 N.ar      1 ATP        -0.8111
     29 C2         -1.3053   -5.1020    0.8081 C.ar      1 ATP         0.6446
     30 N3         -0.8788   -3.8921    1.2315 N.ar      1 ATP        -0.7095
     31 C4         -1.7870   -2.9477    0.9438 C.ar      1 ATP         0.5640
     32 HOA2       -0.2966    3.8365   -1.3930 H         1 ATP         0.4759
     33 H5'1       -1.7777    2.7838    2.1390 H         1 ATP         0.0806
     34 H5'2       -1.1661    2.0530    0.6323 H         1 ATP         0.0806
     35 H4'         0.0402    1.7079    3.4342 H         1 ATP         0.1213
     36 H3'         1.5907    1.4859    1.1353 H         1 ATP         0.1208
     37 HO3'        2.6839   -0.1150    2.2479 H         1 ATP         0.3965
     38 H2'        -0.0017    0.0018    0.0005 H         1 ATP         0.0768
     39 HO2'        2.0953   -0.9375    0.0709 H         1 ATP         0.4074
     40 H1'        -0.1998   -1.6319    2.6178 H         1 ATP         0.0935
     41 H8         -3.0609    0.0200    0.8250 H         1 ATP         0.1424
     42 HN61       -5.2046   -3.9433   -0.8775 H         1 ATP         0.4144
     43 HN62       -4.7849   -5.6332   -0.9625 H         1 ATP         0.4144
     44 H2         -0.6318   -5.9307    0.9993 H         1 ATP         0.0297
@<TRIPOS>BOND
     1    1    2 2
     2    1    3 1
     3    1    4 1
     4    1    8 1
     5    5    6 2
     6    5    7 1
     7    5    8 1
     8    5   12 1
     9    9   10 2
    10    9   11 1
    11    9   12 1
    12    9   13 1
    13   11   32 1
    14   13   14 1
    15   14   15 1
    16   14   33 1
    17   14   34 1
    18   15   16 1
    19   15   17 1
    20   15   35 1
    21   16   21 1
    22   17   18 1
    23   17   19 1
    24   17   36 1
    25   18   37 1
    26   19   20 1
    27   19   21 1
    28   19   38 1
    29   20   39 1
    30   21   22 1
    31   21   40 1
    32   22   23 ar
    33   22   31 ar
    34   23   24 ar
    35   23   41 1
    36   24   25 ar
    37   25   26 ar
    38   25   31 ar
    39   26   27 1
    40   26   28 ar
    41   27   42 1
    42   27   43 1
    43   28   29 ar
    44   29   30 ar
    45   29   44 1
    46   30   31 ar
@<TRIPOS>SUBSTRUCTURE
     1 ATP         1 GROUP 0 A     ****
@<TRIPOS>MOLECULE
[[[5-(6-aminopurin-9-yl)-3,4-dihydroxy-tetrahydrofuran-2-yl]methoxy-hydroxy-phosphoryl]oxy-oxido-phosphoryl] phosphate
   44    46     1     0     0
SMALL
USER_CHARGES

@<TRIPOS>ATOM
      1 PG         -3.2757    5.9762   -3.2900 P.3       1 ATP         1.4221
      2 O1G        -2.2156    7.0675   -3.3936 O.co2     1 ATP        -0.9341
      3 O2G        -3.0893    4.8223   -4.2691 O.co2     1 ATP        -0.9341
      4 O3G        -4.7060    6.5005   -3.2114 O.co2     1 ATP        -0.9341
      5 PB         -3.0611    5.9363   -0.3040 P.3       1 ATP         1.6363
      6 O1B        -1.9225    6.9214   -0.1598 O.co2     1 ATP        -0.9021
      7 O2B        -4.4850    6.3438    0.0047 O.co2     1 ATP        -0.9021
      8 O3B        -3.0250    5.3011   -1.8077 O.3       1 ATP        -0.7799
      9 PA         -2.5512    4.3890    2.1537 P.3       1 ATP         1.7141
     10 O1A        -3.7881    4.7198    2.9376 O.2       1 ATP        -0.8703
     11 O2A        -1.2598    5.2885    2.5287 O.3       1 ATP        -0.8196
     12 O3A        -2.7068    4.5958    0.5565 O.3       1 ATP        -0.7658
     13 O5'        -2.0394    2.8623    2.3117 O.3       1 ATP        -0.5841
     14 C5'        -0.8811    2.4285    1.6206 C.3       1 ATP         0.1451
     15 C4'        -0.1994    1.3333    2.4288 C.3       1 ATP         0.0896
     16 O4'        -1.1285    0.2356    2.5840 O.3       1 ATP        -0.3980
     17 C3'         1.0324    0.7610    1.7344 C.3       1 ATP         0.0854
     18 O3'         1.9175    0.2377    2.7247 O.3       1 ATP        -0.5883
     19 C2'         0.4468   -0.3802    0.9263 C.3       1 ATP         0.0574
     20 O2'         1.3993   -1.3703    0.5961 O.3       1 ATP        -0.6005
     21 C1'        -0.6159   -0.9100    1.8769 C.3       1 ATP         0.4284
     22 N9         -1.7127   -1.6108    1.2130 N.pl3     1 ATP        -0.6877
     23 C8         -1.7712   -2.9546    0.9544 C.ar      1 ATP         0.5830
     24 N7         -2.8883   -3.2948    0.3462 N.2       1 ATP        -0.5778
     25 C5         -3.5834   -2.1202    0.2043 C.ar      1 ATP        -0.1986
     26 C6         -4.8225   -1.8251   -0.3554 C.ar      1 ATP         0.7073
     27 N6         -5.6154   -2.8394   -0.9189 N.pl3     1 ATP        -0.9340
     28 N1         -5.2589   -0.5425   -0.3507 N.ar      1 ATP        -0.8111
     29 C2         -4.4510    0.3913    0.2069 C.ar      1 ATP         0.6446
     30 N3         -3.2368    0.2296    0.7767 N.ar      1 ATP        -0.7095
     31 C4         -2.8684   -1.0596    0.7376 C.ar      1 ATP         0.5640
     32 HOA2       -0.9184    5.2684    3.4480 H         1 ATP         0.4759
     33 H5'1       -1.1757    2.0497    0.6364 H         1 ATP         0.0806
     34 H5'2       -0.2069    3.2809    1.4872 H         1 ATP         0.0806
     35 H4'         0.0402    1.7079    3.4342 H         1 ATP         0.1213
     36 H3'         1.5907    1.4859    1.1353 H         1 ATP         0.1208
     37 HO3'        2.6839   -0.1150    2.2479 H         1 ATP         0.3965
     38 H2'        -0.0017    0.0018    0.0005 H         1 ATP         0.0768
     39 HO2'        2.0953   -0.9375    0.0709 H         1 ATP         0.4074
     40 H1'        -0.1998   -1.6319    2.6178 H         1 ATP         0.0935
     41 H8         -0.9745   -3.6312    1.2318 H         1 ATP         0.1424
     42 HN61       -5.2619   -3.7766   -0.9586 H         1 ATP         0.4144
     43 HN62       -6.4834   -2.5990   -1.3590 H         1 ATP         0.4144
     44 H2         -4.8317    1.4071    0.1930 H         1 ATP         0.0297
@<TRIPOS>BOND
     1    1    2 2
     2    1    3 1
     3    1    4 1
     4    1    8 1
     5    5    6 2
     6    5    7 1
     7    5    8 1
     8    5   12 1
     9    9   10 2
    10    9   11 1
    11    9   12 1
    12    9   13 1
    13   11   32 1
    14   13   14 1
    15   14   15 1
    16   14   33 1
    17   14   34 1
    18   15   16 1
    19   15   17 1
    20   15   35 1
    21   16   21 1
    22   17   18 1
    23   17   19 1
    24   17   36 1
    25   18   37 1
    26   19   20 1
    27   19   21 1
    28   19   38 1
    29   20   39 1
    30   21   22 1
    31   21   40 1
    32   22   23 ar
    33   22   31 ar
    34   23   24 ar
    35   23   41 1
    36   24   25 ar
    37   25   26 ar
    38   25   31 ar
    39   26   27 1
    40   26   28 ar
    41   27   42 1
    42   27   43 1
    43   28   29 ar
    44   29   30 ar
    45   29   44 1
    46   30   31 ar
@<TRIPOS>SUBSTRUCTURE
     1 ATP         1 GROUP 0 A     ****
@<TRIPOS>MOLECULE
[[[5-(6-aminopurin-9-yl)-3,4-dihydroxy-tetrahydrofuran-2-yl]methoxy-hydroxy-phosphoryl]oxy-oxido-phosphoryl] phosphate
   44    46     1     0     0
SMALL
USER_CHARGES

@<TRIPOS>ATOM
      1 PG         -3.2757    5.9762   -3.2900 P.3       1 ATP         1.4221
      2 O1G        -2.2156    7.0675   -3.3936 O.co2     1 ATP        -0.9341
      3 O2G        -3.0893    4.8223   -4.2691 O.co2     1 ATP        -0.9341
      4 O3G        -4.7060    6.5005   -3.2114 O.co2     1 ATP        -0.9341
      5 PB         -3.0611    5.9363   -0.3040 P.3       1 ATP         1.6363
      6 O1B        -1.9225    6.9214   -0.1598 O.co2     1 ATP        -0.9021
      7 O2B        -4.4850    6.3438    0.0047 O.co2     1 ATP        -0.9021
      8 O3B        -3.0250    5.3011   -1.8077 O.3       1 ATP        -0.7799
      9 PA         -2.5512    4.3890    2.1537 P.3       1 ATP         1.7141
     10 O1A        -3.7881    4.7198    2.9376 O.2       1 ATP        -0.8703
     11 O2A        -1.2598    5.2885    2.5287 O.3       1 ATP        -0.8196
     12 O3A        -2.7068    4.5958    0.5565 O.3       1 ATP        -0.7658
     13 O5'        -2.0394    2.8623    2.3117 O.3       1 ATP        -0.5841
     14 C5'        -0.8811    2.4285    1.6206 C.3       1 ATP         0.1451
     15 C4'        -0.1994    1.3333    2.4288 C.3       1 ATP         0.0896
     16 O4'        -1.1285    0.2356    2.5840 O.3       1 ATP        -0.3980
     17 C3'         1.0324    0.7610    1.7344 C.3       1 ATP         0.0854
     18 O3'         1.9175    0.2377    2.7247 O.3       1 ATP        -0.5883
     19 C2'         0.4468   -0.3802    0.9263 C.3       1 ATP         0.0574
     20 O2'         1.3993   -1.3703    0.5961 O.3       1 ATP        -0.6005
     21 C1'        -0.6159   -0.9100    1.8769 C.3       1 ATP         0.4284
     22 N9         -1.7127   -1.6108    1.2130 N.pl3     1 ATP        -0.6877
     23 C8         -2.8641   -1.0399    0.7392 C.ar      1 ATP         0.5830
     24 N7         -3.6659   -1.9257    0.1858 N.2       1 ATP        -0.5778
     25 C5         -3.0053   -3.1223    0.3069 C.ar      1 ATP        -0.1986
     26 C6         -3.3321   -4.4178   -0.0813 C.ar      1 ATP         0.7073
     27 N6         -4.5476   -4.6866   -0.7335 N.pl3     1 ATP        -0.9340
     28 N1         -2.4608   -5.4225    0.1773 N.ar      1 ATP        -0.8111
     29 C2         -1.3053   -5.1020    0.8081 C.ar      1 ATP         0.6446
     30 N3         -0.8788   -3.8921    1.2315 N.ar      1 ATP        -0.7095
     31 C4         -1.7870   -2.9477    0.9438 C.ar      1 ATP         0.5640
     32 HOA2       -0.9184    5.2684    3.4480 H         1 ATP         0.4759
     33 H5'1       -1.1757    2.0497    0.6364 H         1 ATP         0.0806
     34 H5'2       -0.2069    3.2809    1.4872 H         1 ATP         0.0806
     35 H4'         0.0402    1.7079    3.4342 H         1 ATP         0.1213
     36 H3'         1.5907    1.4859    1.1353 H         1 ATP         0.1208
     37 HO3'        2.6839   -0.1150    2.2479 H         1 ATP         0.3965
     38 H2'        -0.0017    0.0018    0.0005 H         1 ATP         0.0768
     39 HO2'        2.0953   -0.9375    0.0709 H         1 ATP         0.4074
     40 H1'        -0.1998   -1.6319    2.6178 H         1 ATP         0.0935
     41 H8         -3.0609    0.0200    0.8250 H         1 ATP         0.1424
     42 HN61       -5.2046   -3.9433   -0.8775 H         1 ATP         0.4144
     43 HN62       -4.7849   -5.6332   -0.9625 H         1 ATP         0.4144
     44 H2         -0.6318   -5.9307    0.9993 H         1 ATP         0.0297
@<TRIPOS>BOND
     1    1    2 2
     2    1    3 1
     3    1    4 1
     4    1    8 1
     5    5    6 2
     6    5    7 1
     7    5    8 1
     8    5   12 1
     9    9   10 2
    10    9   11 1
    11    9   12 1
    12    9   13 1
    13   11   32 1
    14   13   14 1
    15   14   15 1
    16   14   33 1
    17   14   34 1
    18   15   16 1
    19   15   17 1
    20   15   35 1
    21   16   21 1
    22   17   18 1
    23   17   19 1
    24   17   36 1
    25   18   37 1
    26   19   20 1
    27   19   21 1
    28   19   38 1
    29   20   39 1
    30   21   22 1
    31   21   40 1
    32   22   23 ar
    33   22   31 ar
    34   23   24 ar
    35   23   41 1
    36   24   25 ar
    37   25   26 ar
    38   25   31 ar
    39   26   27 1
    40   26   28 ar
    41   27   42 1
    42   27   43 1
    43   28   29 ar
    44   29   30 ar
    45   29   44 1
    46   30   31 ar
@<TRIPOS>SUBSTRUCTURE
     1 ATP         1 GROUP 0 A     ****
@<TRIPOS>MOLECULE
[[[5-(6-aminopurin-9-yl)-3,4-dihydroxy-tetrahydrofuran-2-yl]methoxy-hydroxy-phosphoryl]oxy-oxido-phosphoryl] phosphate
   44    46     1     0     0
SMALL
USER_CHARGES

@<TRIPOS>ATOM
      1 PG         -2.1129    9.3690    0.7623 P.3       1 ATP         1.4221
      2 O1G        -3.1777    9.7595    1.7818 O.co2     1 ATP        -0.9341
      3 O2G        -0.7506   10.0127    0.9967 O.co2     1 ATP        -0.9341
      4 O3G        -2.5858    9.4239   -0.6868 O.co2     1 ATP        -0.9341
      5 PB         -2.8641    6.4777    0.9623 P.3       1 ATP         1.6363
      6 O1B        -3.8942    6.6016    2.0627 O.co2     1 ATP        -0.9021
      7 O2B        -3.2848    6.2800   -0.4774 O.co2     1 ATP        -0.9021
      8 O3B        -1.8591    7.7628    1.0300 O.3       1 ATP        -0.7799
      9 PA         -0.4427    4.8271    0.6349 P.3       1 ATP         1.7141
     10 O1A         0.6007    5.9021    0.5371 O.2       1 ATP        -0.8703
     11 O2A        -0.9489    4.2532   -0.7905 O.3       1 ATP        -0.8196
     12 O3A        -1.8097    5.2979    1.3615 O.3       1 ATP        -0.7658
     13 O5'         0.0166    3.5128    1.4591 O.3       1 ATP        -0.5841
     14 C5'        -0.8811    2.4285    1.6206 C.3       1 ATP         0.1451
     15 C4'        -0.1994    1.3333    2.4288 C.3       1 ATP         0.0896
     16 O4'        -1.1285    0.2356    2.5840 O.3       1 ATP        -0.3980
     17 C3'         1.0324    0.7610    1.7344 C.3       1 ATP         0.0854
     18 O3'         1.9175    0.2377    2.7247 O.3       1 ATP        -0.5883
     19 C2'         0.4468   -0.3802    0.9263 C.3       1 ATP         0.0574
     20 O2'         1.3993   -1.3703    0.5961 O.3       1 ATP        -0.6005
     21 C1'        -0.6159   -0.9100    1.8769 C.3       1 ATP         0.4284
     22 N9         -1.7127   -1.6108    1.2130 N.pl3     1 ATP        -0.6877
     23 C8         -2.8641   -1.0399    0.7392 C.ar      1 ATP         0.5830
     24 N7         -3.6659   -1.9257    0.1858 N.2       1 ATP        -0.5778
     25 C5         -3.0053   -3.1223    0.3069 C.ar      1 ATP        -0.1986
     26 C6         -3.3321   -4.4178   -0.0813 C.ar      1 ATP         0.7073
     27 N6         -4.5476   -4.6866   -0.7335 N.pl3     1 ATP        -0.9340
     28 N1         -2.4608   -5.4225    0.1773 N.ar      1 ATP        -0.8111
     29 C2         -1.3053   -5.1020    0.8081 C.ar      1 ATP         0.6446
     30 N3         -0.8788   -3.8921    1.2315 N.ar      1 ATP        -0.7095
     31 C4         -1.7870   -2.9477    0.9438 C.ar      1 ATP         0.5640
     32 HOA2       -0.2966    3.8365   -1.3930 H         1 ATP         0.4759
     33 H5'1       -1.7777    2.7838    2.1390 H         1 ATP         0.0806
     34 H5'2       -1.1661    2.0530    0.6323 H         1 ATP         0.0806
     35 H4'         0.0402    1.7079    3.4342 H         1 ATP         0.1213
     36 H3'         1.5907    1.4859    1.1353 H         1 ATP         0.1208
     37 HO3'        2.6839   -0.1150    2.2479 H         1 ATP         0.3965
     38 H2'        -0.0017    0.0018    0.0005 H         1 ATP         0.0768
     39 HO2'        2.0953   -0.9375    0.0709 H         1 ATP         0.4074
     40 H1'        -0.1998   -1.6319    2.6178 H         1 ATP         0.0935
     41 H8         -3.0609    0.0200    0.8250 H         1 ATP         0.1424
     42 HN61       -5.2046   -3.9433   -0.8775 H         1 ATP         0.4144
     43 HN62       -4.7849   -5.6332   -0.9625 H         1 ATP         0.4144
     44 H2         -0.6318   -5.9307    0.9993 H         1 ATP         0.0297
@<TRIPOS>BOND
     1    1    2 2
     2    1    3 1
     3    1    4 1
     4    1    8 1
     5    5    6 2
     6    5    7 1
     7    5    8 1
     8    5   12 1
     9    9   10 2
    10    9   11 1
    11    9   12 1
    12    9   13 1
    13   11   32 1
    14   13   14 1
    15   14   15 1
    16   14   33 1
    17   14   34 1
    18   15   16 1
    19   15   17 1
    20   15   35 1
    21   16   21 1
    22   17   18 1
    23   17   19 1
    24   17   36 1
    25   18   37 1
    26   19   20 1
    27   19   21 1
    28   19   38 1
    29   20   39 1
    30   21   22 1
    31   21   40 1
    32   22   23 ar
    33   22   31 ar
    34   23   24 ar
    35   23   41 1
    36   24   25 ar
    37   25   26 ar
    38   25   31 ar
    39   26   27 1
    40   26   28 ar
    41   27   42 1
    42   27   43 1
    43   28   29 ar
    44   29   30 ar
    45   29   44 1
    46   30   31 ar
@<TRIPOS>SUBSTRUCTURE
     1 ATP         1 GROUP 0 A     ****
@<TRIPOS>MOLECULE
[[[5-(6-aminopurin-9-yl)-3,4-dihydroxy-tetrahydrofuran-2-yl]methoxy-hydroxy-phosphoryl]oxy-oxido-phosphoryl] phosphate
   44    46     1     0     0
SMALL
USER_CHARGES

@<TRIPOS>ATOM
      1 PG         -6.0347    0.0546   -2.1359 P.3       1 ATP         1.4221
      2 O1G        -5.1682   -0.0063   -3.3894 O.co2     1 ATP        -0.9341
      3 O2G        -6.3340   -1.3035   -1.5107 O.co2     1 ATP        -0.9341
      4 O3G        -7.2532    0.9632   -2.2627 O.co2     1 ATP        -0.9341
      5 PB         -4.4008    2.2995   -1.0157 P.3       1 ATP         1.6363
      6 O1B        -3.3447    2.3536   -2.0971 O.co2     1 ATP        -0.9021
      7 O2B        -5.5012    3.3357   -0.9517 O.co2     1 ATP        -0.9021
      8 O3B        -5.0909    0.8197   -1.0225 O.3       1 ATP        -0.7799
      9 PA         -3.3127    3.4213    1.4847 P.3       1 ATP         1.7141
     10 O1A        -4.4741    3.8481    2.3349 O.2       1 ATP        -0.8703
     11 O2A        -2.7034    4.5906    0.5473 O.3       1 ATP        -0.8196
     12 O3A        -3.6608    2.2381    0.4374 O.3       1 ATP        -0.7658
     13 O5'        -2.0394    2.8623    2.3117 O.3       1 ATP        -0.5841
     14 C5'        -0.8811    2.4285    1.6206 C.3       1 ATP         0.1451
     15 C4'        -0.1994    1.3333    2.4288 C.3       1 ATP         0.0896
     16 O4'        -1.1285    0.2356    2.5840 O.3       1 ATP        -0.3980
     17 C3'         1.0324    0.7610    1.7344 C.3       1 ATP         0.0854
     18 O3'         1.9175    0.2377    2.7247 O.3       1 ATP        -0.5883
     19 C2'         0.4468   -0.3802    0.9263 C.3       1 ATP         0.0574
     20 O2'         1.3993   -1.3703    0.5961 O.3       1 ATP        -0.6005
     21 C1'        -0.6159   -0.9100    1.8769 C.3       1 ATP         0.4284
     22 N9         -1.7127   -1.6108    1.2130 N.pl3     1 ATP        -0.6877
     23 C8         -2.5476   -1.0844    0.2632 C.ar      1 ATP         0.5830
     24 N7         -3.4391   -1.9591   -0.1536 N.2       1 ATP        -0.5778
     25 C5         -3.1701   -3.1016    0.5574 C.ar      1 ATP        -0.1986
     26 C6         -3.7593   -4.3620    0.5656 C.ar      1 ATP         0.7073
     27 N6         -4.8512   -4.6493   -0.2712 N.pl3     1 ATP        -0.9340
     28 N1         -3.2659   -5.3144    1.3932 N.ar      1 ATP        -0.8111
     29 C2         -2.2122   -4.9785    2.1759 C.ar      1 ATP         0.6446
     30 N3         -1.5595   -3.7985    2.2572 N.ar      1 ATP        -0.7095
     31 C4         -2.0986   -2.9054    1.4140 C.ar      1 ATP         0.5640
     32 HOA2       -2.3471    5.4006    0.9704 H         1 ATP         0.4759
     33 H5'1       -1.1757    2.0497    0.6364 H         1 ATP         0.0806
     34 H5'2       -0.2069    3.2809    1.4872 H         1 ATP         0.0806
     35 H4'         0.0402    1.7079    3.4342 H         1 ATP         0.1213
     36 H3'         1.5907    1.4859    1.1353 H         1 ATP         0.1208
     37 HO3'        2.6839   -0.1150    2.2479 H         1 ATP         0.3965
     38 H2'        -0.0017    0.0018    0.0005 H         1 ATP         0.0768
     39 HO2'        2.0953   -0.9375    0.0709 H         1 ATP         0.4074
     40 H1'        -0.1998   -1.6319    2.6178 H         1 ATP         0.0935
     41 H8         -2.4576   -0.0639   -0.0831 H         1 ATP         0.1424
     42 HN61       -5.2371   -3.9234   -0.8448 H         1 ATP         0.4144
     43 HN62       -5.2909   -5.5485   -0.2160 H         1 ATP         0.4144
     44 H2         -1.8433   -5.7650    2.8259 H         1 ATP         0.0297
@<TRIPOS>BOND
     1    1    2 2
     2    1    3 1
     3    1    4 1
     4    1    8 1
     5    5    6 2
     6    5    7 1
     7    5    8 1
     8    5   12 1
     9    9   10 2
    10    9   11 1
    11    9   12 1
    12    9   13 1
    13   11   32 1
    14   13   14 1
    15   14   15 1
    16   14   33 1
    17   14   34 1
    18   15   16 1
    19   15   17 1
    20   15   35 1
    21   16   21 1
    22   17   18 1
    23   17   19 1
    24   17   36 1
    25   18   37 1
    26   19   20 1
    27   19   21 1
    28   19   38 1
    29   20   39 1
    30   21   22 1
    31   21   40 1
    32   22   23 ar
    33   22   31 ar
    34   23   24 ar
    35   23   41 1
    36   24   25 ar
    37   25   26 ar
    38   25   31 ar
    39   26   27 1
    40   26   28 ar
    41   27   42 1
    42   27   43 1
    43   28   29 ar
    44   29   30 ar
    45   29   44 1
    46   30   31 ar
@<TRIPOS>SUBSTRUCTURE
     1 ATP         1 GROUP 0 A     ****
@<TRIPOS>MOLECULE
[[[5-(6-aminopurin-9-yl)-3,4-dihydroxy-tetrahydrofuran-2-yl]methoxy-hydroxy-phosphoryl]oxy-oxido-phosphoryl] phosphate
   44    46     1     0     0
SMALL
USER_CHARGES

@<TRIPOS>ATOM
      1 PG         -4.3553    6.5545   -1.6328 P.3       1 ATP         1.4221
      2 O1G        -3.8006    7.9372   -1.9589 O.co2     1 ATP        -0.9341
      3 O2G        -4.2957    5.5632   -2.7899 O.co2     1 ATP        -0.9341
      4 O3G        -5.6926    6.5753   -0.8996 O.co2     1 ATP        -0.9341
      5 PB         -2.8641    6.4777    0.9623 P.3       1 ATP         1.6363
      6 O1B        -2.1048    7.7768    0.8094 O.co2     1 ATP        -0.9021
      7 O2B        -4.0632    6.3818    1.8796 O.co2     1 ATP        -0.9021
      8 O3B        -3.3070    5.9456   -0.5165 O.3       1 ATP        -0.7799
      9 PA         -0.4427    4.8271    0.6349 P.3       1 ATP         1.7141
     10 O1A         0.6007    5.9021    0.5371 O.2       1 ATP        -0.8703
     11 O2A        -0.9489    4.2532   -0.7905 O.3       1 ATP        -0.8196
     12 O3A        -1.8097    5.2979    1.3615 O.3       1 ATP        -0.7658
     13 O5'         0.0166    3.5128    1.4591 O.3       1 ATP        -0.5841
     14 C5'        -0.8811    2.4285    1.6206 C.3       1 ATP         0.1451
     15 C4'        -0.1994    1.3333    2.4288 C.3       1 ATP         0.0896
     16 O4'        -1.1285    0.2356    2.5840 O.3       1 ATP        -0.3980
     17 C3'         1.0324    0.7610    1.7344 C.3       1 ATP         0.0854
     18 O3'         1.9175    0.2377    2.7247 O.3       1 ATP        -0.5883
     19 C2'         0.4468   -0.3802    0.9263 C.3       1 ATP         0.0574
     20 O2'         1.3993   -1.3703    0.5961 O.3       1 ATP        -0.6005
     21 C1'        -0.6159   -0.9100    1.8769 C.3       1 ATP         0.4284
     22 N9         -1.7127   -1.6108    1.2130 N.pl3     1 ATP        -0.6877
     23 C8         -2.8641   -1.0399    0.7392 C.ar      1 ATP         0.5830
     24 N7         -3.6659   -1.9257    0.1858 N.2       1 ATP        -0.5778
     25 C5         -3.0053   -3.1223    0.3069 C.ar      1 ATP        -0.1986
     26 C6         -3.3321   -4.4178   -0.0813 C.ar      1 ATP         0.7073
     27 N6         -4.5476   -4.6866   -0.7335 N.pl3     1 ATP        -0.9340
     28 N1         -2.4608   -5.4225    0.1773 N.ar      1 ATP        -0.8111
     29 C2         -1.3053   -5.1020    0.8081 C.ar      1 ATP         0.6446
     30 N3         -0.8788   -3.8921    1.2315 N.ar      1 ATP        -0.7095
     31 C4         -1.7870   -2.9477    0.9438 C.ar      1 ATP         0.5640
     32 HOA2       -1.3649    4.8701   -1.4297 H         1 ATP         0.4759
     33 H5'1       -1.7777    2.7838    2.1390 H         1 ATP         0.0806
     34 H5'2       -1.1661    2.0530    0.6323 H         1 ATP         0.0806
     35 H4'         0.0402    1.7079    3.4342 H         1 ATP         0.1213
     36 H3'         1.5907    1.4859    1.1353 H         1 ATP         0.1208
     37 HO3'        2.6839   -0.1150    2.2479 H         1 ATP         0.3965
     38 H2'        -0.0017    0.0018    0.0005 H         1 ATP         0.0768
     39 HO2'        2.0953   -0.9375    0.0709 H         1 ATP         0.4074
     40 H1'        -0.1998   -1.6319    2.6178 H         1 ATP         0.0935
     41 H8         -3.0609    0.0200    0.8250 H         1 ATP         0.1424
     42 HN61       -5.2046   -3.9433   -0.8775 H         1 ATP         0.4144
     43 HN62       -4.7849   -5.6332   -0.9625 H         1 ATP         0.4144
     44 H2         -0.6318   -5.9307    0.9993 H         1 ATP         0.0297
@<TRIPOS>BOND
     1    1    2 2
     2    1    3 1
     3    1    4 1
     4    1    8 1
     5    5    6 2
     6    5    7 1
     7    5    8 1
     8    5   12 1
     9    9   10 2
    10    9   11 1
    11    9   12 1
    12    9   13 1
    13   11   32 1
    14   13   14 1
    15   14   15 1
    16   14   33 1
    17   14   34 1
    18   15   16 1
    19   15   17 1
    20   15   35 1
    21   16   21 1
    22   17   18 1
    23   17   19 1
    24   17   36 1
    25   18   37 1
    26   19   20 1
    27   19   21 1
    28   19   38 1
    29   20   39 1
    30   21   22 1
    31   21   40 1
    32   22   23 ar
    33   22   31 ar
    34   23   24 ar
    35   23   41 1
    36   24   25 ar
    37   25   26 ar
    38   25   31 ar
    39   26   27 1
    40   26   28 ar
    41   27   42 1
    42   27   43 1
    43   28   29 ar
    44   29   30 ar
    45   29   44 1
    46   30   31 ar
@<TRIPOS>SUBSTRUCTURE
     1 ATP         1 GROUP 0 A     ****
@<TRIPOS>MOLECULE
[[[5-(6-aminopurin-9-yl)-3,4-dihydroxy-tetrahydrofuran-2-yl]methoxy-hydroxy-phosphoryl]oxy-oxido-phosphoryl] phosphate
   44    46     1     0     0
SMALL
USER_CHARGES

@<TRIPOS>ATOM
      1 PG         -0.9468    5.6236    5.3832 P.3       1 ATP         1.4221
      2 O1G        -2.3398    5.6808    6.0011 O.co2     1 ATP        -0.9341
      3 O2G        -0.1148    4.4213    5.8161 O.co2     1 ATP        -0.9341
      4 O3G        -0.1920    6.9485    5.4210 O.co2     1 ATP        -0.9341
      5 PB         -2.0363    6.2516    2.6661 P.3       1 ATP         1.6363
      6 O1B        -3.5066    6.2483    3.0210 O.co2     1 ATP        -0.9021
      7 O2B        -1.2926    7.5507    2.4474 O.co2     1 ATP        -0.9021
      8 O3B        -1.2211    5.3759    3.7772 O.3       1 ATP        -0.7799
      9 PA         -0.4427    4.8271    0.6349 P.3       1 ATP         1.7141
     10 O1A         0.6007    5.9021    0.5371 O.2       1 ATP        -0.8703
     11 O2A        -0.9489    4.2532   -0.7905 O.3       1 ATP        -0.8196
     12 O3A        -1.8097    5.2979    1.3615 O.3       1 ATP        -0.7658
     13 O5'         0.0166    3.5128    1.4591 O.3       1 ATP        -0.5841
     14 C5'        -0.8811    2.4285    1.6206 C.3       1 ATP         0.1451
     15 C4'        -0.1994    1.3333    2.4288 C.3       1 ATP         0.0896
     16 O4'        -1.1285    0.2356    2.5840 O.3       1 ATP        -0.3980
     17 C3'         1.0324    0.7610    1.7344 C.3       1 ATP         0.0854
     18 O3'         1.9175    0.2377    2.7247 O.3       1 ATP        -0.5883
     19 C2'         0.4468   -0.3802    0.9263 C.3       1 ATP         0.0574
     20 O2'         1.3993   -1.3703    0.5961 O.3       1 ATP        -0.6005
     21 C1'        -0.6159   -0.9100    1.8769 C.3       1 ATP         0.4284
     22 N9         -1.7127   -1.6108    1.2130 N.pl3     1 ATP        -0.6877
     23 C8         -1.7712   -2.9546    0.9544 C.ar      1 ATP         0.5830
     24 N7         -2.8883   -3.2948    0.3462 N.2       1 ATP        -0.5778
     25 C5         -3.5834   -2.1202    0.2043 C.ar      1 ATP        -0.1986
     26 C6         -4.8225   -1.8251   -0.3554 C.ar      1 ATP         0.7073
     27 N6         -5.6154   -2.8394   -0.9189 N.pl3     1 ATP        -0.9340
     28 N1         -5.2589   -0.5425   -0.3507 N.ar      1 ATP        -0.8111
     29 C2         -4.4510    0.3913    0.2069 C.ar      1 ATP         0.6446
     30 N3         -3.2368    0.2296    0.7767 N.ar      1 ATP        -0.7095
     31 C4         -2.8684   -1.0596    0.7376 C.ar      1 ATP         0.5640
     32 HOA2       -0.2966    3.8365   -1.3930 H         1 ATP         0.4759
     33 H5'1       -1.7777    2.7838    2.1390 H         1 ATP         0.0806
     34 H5'2       -1.1661    2.0530    0.6323 H         1 ATP         0.0806
     35 H4'         0.0402    1.7079    3.4342 H         1 ATP         0.1213
     36 H3'         1.5907    1.4859    1.1353 H         1 ATP         0.1208
     37 HO3'        2.6839   -0.1150    2.2479 H         1 ATP         0.3965
     38 H2'        -0.0017    0.0018    0.0005 H         1 ATP         0.0768
     39 HO2'        2.0953   -0.9375    0.0709 H         1 ATP         0.4074
     40 H1'        -0.1998   -1.6319    2.6178 H         1 ATP         0.0935
     41 H8         -0.9745   -3.6312    1.2318 H         1 ATP         0.1424
     42 HN61       -5.2619   -3.7766   -0.9586 H         1 ATP         0.4144
     43 HN62       -6.4834   -2.5990   -1.3590 H         1 ATP         0.4144
     44 H2         -4.8317    1.4071    0.1930 H         1 ATP         0.0297
@<TRIPOS>BOND
     1    1    2 2
     2    1    3 1
     3    1    4 1
     4    1    8 1
     5    5    6 2
     6    5    7 1
     7    5    8 1
     8    5   12 1
     9    9   10 2
    10    9   11 1
    11    9   12 1
    12    9   13 1
    13   11   32 1
    14   13   14 1
    15   14   15 1
    16   14   33 1
    17   14   34 1
    18   15   16 1
    19   15   17 1
    20   15   35 1
    21   16   21 1
    22   17   18 1
    23   17   19 1
    24   17   36 1
    25   18   37 1
    26   19   20 1
    27   19   21 1
    28   19   38 1
    29   20   39 1
    30   21   22 1
    31   21   40 1
    32   22   23 ar
    33   22   31 ar
    34   23   24 ar
    35   23   41 1
    36   24   25 ar
    37   25   26 ar
    38   25   31 ar
    39   26   27 1
    40   26   28 ar
    41   27   42 1
    42   27   43 1
    43   28   29 ar
    44   29   30 ar
    45   29   44 1
    46   30   31 ar
@<TRIPOS>SUBSTRUCTURE
     1 ATP         1 GROUP 0 A     ****
@<TRIPOS>MOLECULE
[[[5-(6-aminopurin-9-yl)-3,4-dihydroxy-tetrahydrofuran-2-yl]methoxy-hydroxy-phosphoryl]oxy-oxido-phosphoryl] phosphate
   44    46     1     0     0
SMALL
USER_CHARGES

@<TRIPOS>ATOM
      1 PG         -0.7785    8.3616    3.9257 P.3       1 ATP         1.4221
      2 O1G        -0.1664    7.6003    5.0968 O.co2     1 ATP        -0.9341
      3 O2G         0.1855    9.3060    3.2159 O.co2     1 ATP        -0.9341
      4 O3G        -2.1431    8.9743    4.2241 O.co2     1 ATP        -0.9341
      5 PB         -2.0598    5.8704    2.8690 P.3       1 ATP         1.6363
      6 O1B        -1.4748    4.8925    3.8635 O.co2     1 ATP        -0.9021
      7 O2B        -3.4990    6.3233    2.9790 O.co2     1 ATP        -0.9021
      8 O3B        -1.1091    7.1966    2.8080 O.3       1 ATP        -0.7799
      9 PA         -0.4427    4.8271    0.6349 P.3       1 ATP         1.7141
     10 O1A         0.6007    5.9021    0.5371 O.2       1 ATP        -0.8703
     11 O2A        -0.9489    4.2532   -0.7905 O.3       1 ATP        -0.8196
     12 O3A        -1.8097    5.2979    1.3615 O.3       1 ATP        -0.7658
     13 O5'         0.0166    3.5128    1.4591 O.3       1 ATP        -0.5841
     14 C5'        -0.8811    2.4285    1.6206 C.3       1 ATP         0.1451
     15 C4'        -0.1994    1.3333    2.4288 C.3       1 ATP         0.0896
     16 O4'        -1.1285    0.2356    2.5840 O.3       1 ATP        -0.3980
     17 C3'         1.0324    0.7610    1.7344 C.3       1 ATP         0.0854
     18 O3'         1.9175    0.2377    2.7247 O.3       1 ATP        -0.5883
     19 C2'         0.4468   -0.3802    0.9263 C.3       1 ATP         0.0574
     20 O2'         1.3993   -1.3703    0.5961 O.3       1 ATP        -0.6005
     21 C1'        -0.6159   -0.9100    1.8769 C.3       1 ATP         0.4284
     22 N9         -1.7127   -1.6108    1.2130 N.pl3     1 ATP        -0.6877
     23 C8         -1.7712   -2.9546    0.9544 C.ar      1 ATP         0.5830
     24 N7         -2.8883   -3.2948    0.3462 N.2       1 ATP        -0.5778
     25 C5         -3.5834   -2.1202    0.2043 C.ar      1 ATP        -0.1986
     26 C6         -4.8225   -1.8251   -0.3554 C.ar      1 ATP         0.7073
     27 N6         -5.6154   -2.8394   -0.9189 N.pl3     1 ATP        -0.9340
     28 N1         -5.2589   -0.5425   -0.3507 N.ar      1 ATP        -0.8111
     29 C2         -4.4510    0.3913    0.2069 C.ar      1 ATP         0.6446
     30 N3         -3.2368    0.2296    0.7767 N.ar      1 ATP        -0.7095
     31 C4         -2.8684   -1.0596    0.7376 C.ar      1 ATP         0.5640
     32 HOA2       -0.2966    3.8365   -1.3930 H         1 ATP         0.4759
     33 H5'1       -1.7777    2.7838    2.1390 H         1 ATP         0.0806
     34 H5'2       -1.1661    2.0530    0.6323 H         1 ATP         0.0806
     35 H4'         0.0402    1.7079    3.4342 H         1 ATP         0.1213
     36 H3'         1.5907    1.4859    1.1353 H         1 ATP         0.1208
     37 HO3'        2.6839   -0.1150    2.2479 H         1 ATP         0.3965
     38 H2'        -0.0017    0.0018    0.0005 H         1 ATP         0.0768
     39 HO2'        2.0953   -0.9375    0.0709 H         1 ATP         0.4074
     40 H1'        -0.1998   -1.6319    2.6178 H         1 ATP         0.0935
     41 H8         -0.9745   -3.6312    1.2318 H         1 ATP         0.1424
     42 HN61       -5.2619   -3.7766   -0.9586 H         1 ATP         0.4144
     43 HN62       -6.4834   -2.5990   -1.3590 H         1 ATP         0.4144
     44 H2         -4.8317    1.4071    0.1930 H         1 ATP         0.0297
@<TRIPOS>BOND
     1    1    2 2
     2    1    3 1
     3    1    4 1
     4    1    8 1
     5    5    6 2
     6    5    7 1
     7    5    8 1
     8    5   12 1
     9    9   10 2
    10    9   11 1
    11    9   12 1
    12    9   13 1
    13   11   32 1
    14   13   14 1
    15   14   15 1
    16   14   33 1
    17   14   34 1
    18   15   16 1
    19   15   17 1
    20   15   35 1
    21   16   21 1
    22   17   18 1
    23   17   19 1
    24   17   36 1
    25   18   37 1
    26   19   20 1
    27   19   21 1
    28   19   38 1
    29   20   39 1
    30   21   22 1
    31   21   40 1
    32   22   23 ar
    33   22   31 ar
    34   23   24 ar
    35   23   41 1
    36   24   25 ar
    37   25   26 ar
    38   25   31 ar
    39   26   27 1
    40   26   28 ar
    41   27   42 1
    42   27   43 1
    43   28   29 ar
    44   29   30 ar
    45   29   44 1
    46   30   31 ar
@<TRIPOS>SUBSTRUCTURE
     1 ATP         1 GROUP 0 A     ****
@<TRIPOS>MOLECULE
[[[5-(6-aminopurin-9-yl)-3,4-dihydroxy-tetrahydrofuran-2-yl]methoxy-hydroxy-phosphoryl]oxy-oxido-phosphoryl] phosphate
   44    46     1     0     0
SMALL
USER_CHARGES

@<TRIPOS>ATOM
      1 PG         -5.1813    1.3302    5.0754 P.3       1 ATP         1.4221
      2 O1G        -3.7629    1.8873    5.0180 O.co2     1 ATP        -0.9341
      3 O2G        -6.1274    2.1087    5.9830 O.co2     1 ATP        -0.9341
      4 O3G        -5.2511   -0.1828    5.2553 O.co2     1 ATP        -0.9341
      5 PB         -5.2769    1.0419    2.0968 P.3       1 ATP         1.6363
      6 O1B        -5.1449   -0.4642    2.1391 O.co2     1 ATP        -0.9021
      7 O2B        -6.1146    1.7190    1.0345 O.co2     1 ATP        -0.9021
      8 O3B        -5.7776    1.5712    3.5580 O.3       1 ATP        -0.7799
      9 PA         -3.3202    3.2466    2.1671 P.3       1 ATP         1.7141
     10 O1A        -4.1101    4.0662    3.1459 O.2       1 ATP        -0.8703
     11 O2A        -3.4118    3.7601    0.6357 O.3       1 ATP        -0.8196
     12 O3A        -3.7833    1.6989    2.0767 O.3       1 ATP        -0.7658
     13 O5'        -1.7333    3.1724    2.4738 O.3       1 ATP        -0.5841
     14 C5'        -0.8811    2.4285    1.6206 C.3       1 ATP         0.1451
     15 C4'        -0.1994    1.3333    2.4288 C.3       1 ATP         0.0896
     16 O4'        -1.1285    0.2356    2.5840 O.3       1 ATP        -0.3980
     17 C3'         1.0324    0.7610    1.7344 C.3       1 ATP         0.0854
     18 O3'         1.9175    0.2377    2.7247 O.3       1 ATP        -0.5883
     19 C2'         0.4468   -0.3802    0.9263 C.3       1 ATP         0.0574
     20 O2'         1.3993   -1.3703    0.5961 O.3       1 ATP        -0.6005
     21 C1'        -0.6159   -0.9100    1.8769 C.3       1 ATP         0.4284
     22 N9         -1.7127   -1.6108    1.2130 N.pl3     1 ATP        -0.6877
     23 C8         -2.5476   -1.0844    0.2632 C.ar      1 ATP         0.5830
     24 N7         -3.4391   -1.9591   -0.1536 N.2       1 ATP        -0.5778
     25 C5         -3.1701   -3.1016    0.5574 C.ar      1 ATP        -0.1986
     26 C6         -3.7593   -4.3620    0.5656 C.ar      1 ATP         0.7073
     27 N6         -4.8512   -4.6493   -0.2712 N.pl3     1 ATP        -0.9340
     28 N1         -3.2659   -5.3144    1.3932 N.ar      1 ATP        -0.8111
     29 C2         -2.2122   -4.9785    2.1759 C.ar      1 ATP         0.6446
     30 N3         -1.5595   -3.7985    2.2572 N.ar      1 ATP        -0.7095
     31 C4         -2.0986   -2.9054    1.4140 C.ar      1 ATP         0.5640
     32 HOA2       -3.1067    4.6671    0.4203 H         1 ATP         0.4759
     33 H5'1       -1.4792    1.9919    0.8140 H         1 ATP         0.0806
     34 H5'2       -0.1359    3.1032    1.1865 H         1 ATP         0.0806
     35 H4'         0.0402    1.7079    3.4342 H         1 ATP         0.1213
     36 H3'         1.5907    1.4859    1.1353 H         1 ATP         0.1208
     37 HO3'        2.6839   -0.1150    2.2479 H         1 ATP         0.3965
     38 H2'        -0.0017    0.0018    0.0005 H         1 ATP         0.0768
     39 HO2'        2.0953   -0.9375    0.0709 H         1 ATP         0.4074
     40 H1'        -0.1998   -1.6319    2.6178 H         1 ATP         0.0935
     41 H8         -2.4576   -0.0639   -0.0831 H         1 ATP         0.1424
     42 HN61       -5.2371   -3.9234   -0.8448 H         1 ATP         0.4144
     43 HN62       -5.2909   -5.5485   -0.2160 H         1 ATP         0.4144
     44 H2         -1.8433   -5.7650    2.8259 H         1 ATP         0.0297
@<TRIPOS>BOND
     1    1    2 2
     2    1    3 1
     3    1    4 1
     4    1    8 1
     5    5    6 2
     6    5    7 1
     7    5    8 1
     8    5   12 1
     9    9   10 2
    10    9   11 1
    11    9   12 1
    12    9   13 1
    13   11   32 1
    14   13   14 1
    15   14   15 1
    16   14   33 1
    17   14   34 1
    18   15   16 1
    19   15   17 1
    20   15   35 1
    21   16   21 1
    22   17   18 1
    23   17   19 1
    24   17   36 1
    25   18   37 1
    26   19   20 1
    27   19   21 1
    28   19   38 1
    29   20   39 1
    30   21   22 1
    31   21   40 1
    32   22   23 ar
    33   22   31 ar
    34   23   24 ar
    35   23   41 1
    36   24   25 ar
    37   25   26 ar
    38   25   31 ar
    39   26   27 1
    40   26   28 ar
    41   27   42 1
    42   27   43 1
    43   28   29 ar
    44   29   30 ar
    45   29   44 1
    46   30   31 ar
@<TRIPOS>SUBSTRUCTURE
     1 ATP         1 GROUP 0 A     ****
@<TRIPOS>MOLECULE
[[[5-(6-aminopurin-9-yl)-3,4-dihydroxy-tetrahydrofuran-2-yl]methoxy-hydroxy-phosphoryl]oxy-oxido-phosphoryl] phosphate
   44    46     1     0     0
SMALL
USER_CHARGES

@<TRIPOS>ATOM
      1 PG         -0.4542    6.2175   -1.4008 P.3       1 ATP         1.4221
      2 O1G        -0.5360    4.7211   -1.1184 O.co2     1 ATP        -0.9341
      3 O2G        -0.8599    6.6143   -2.8161 O.co2     1 ATP        -0.9341
      4 O3G         0.8336    6.8751   -0.9153 O.co2     1 ATP        -0.9341
      5 PB         -1.8289    6.8634    1.1793 P.3       1 ATP         1.6363
      6 O1B        -0.5635    7.3570    1.8446 O.co2     1 ATP        -0.9021
      7 O2B        -3.1676    7.4964    1.4893 O.co2     1 ATP        -0.9021
      8 O3B        -1.6175    6.8799   -0.4396 O.3       1 ATP        -0.7799
      9 PA         -2.1747    4.4070    2.7734 P.3       1 ATP         1.7141
     10 O1A        -3.4489    4.7361    3.4959 O.2       1 ATP        -0.8703
     11 O2A        -0.8289    4.6933    3.6245 O.3       1 ATP        -0.8196
     12 O3A        -1.9501    5.2528    1.4125 O.3       1 ATP        -0.7658
     13 O5'        -2.0394    2.8623    2.3117 O.3       1 ATP        -0.5841
     14 C5'        -0.8811    2.4285    1.6206 C.3       1 ATP         0.1451
     15 C4'        -0.1994    1.3333    2.4288 C.3       1 ATP         0.0896
     16 O4'        -1.1285    0.2356    2.5840 O.3       1 ATP        -0.3980
     17 C3'         1.0324    0.7610    1.7344 C.3       1 ATP         0.0854
     18 O3'         1.9175    0.2377    2.7247 O.3       1 ATP        -0.5883
     19 C2'         0.4468   -0.3802    0.9263 C.3       1 ATP         0.0574
     20 O2'         1.3993   -1.3703    0.5961 O.3       1 ATP        -0.6005
     21 C1'        -0.6159   -0.9100    1.8769 C.3       1 ATP         0.4284
     22 N9         -1.7127   -1.6108    1.2130 N.pl3     1 ATP        -0.6877
     23 C8         -2.8641   -1.0399    0.7392 C.ar      1 ATP         0.5830
     24 N7         -3.6659   -1.9257    0.1858 N.2       1 ATP        -0.5778
     25 C5         -3.0053   -3.1223    0.3069 C.ar      1 ATP        -0.1986
     26 C6         -3.3321   -4.4178   -0.0813 C.ar      1 ATP         0.7073
     27 N6         -4.5476   -4.6866   -0.7335 N.pl3     1 ATP        -0.9340
     28 N1         -2.4608   -5.4225    0.1773 N.ar      1 ATP        -0.8111
     29 C2         -1.3053   -5.1020    0.8081 C.ar      1 ATP         0.6446
     30 N3         -0.8788   -3.8921    1.2315 N.ar      1 ATP        -0.7095
     31 C4         -1.7870   -2.9477    0.9438 C.ar      1 ATP         0.5640
     32 HOA2       -0.6967    4.2235    4.4754 H         1 ATP         0.4759
     33 H5'1       -1.1757    2.0497    0.6364 H         1 ATP         0.0806
     34 H5'2       -0.2069    3.2809    1.4872 H         1 ATP         0.0806
     35 H4'         0.0402    1.7079    3.4342 H         1 ATP         0.1213
     36 H3'         1.5907    1.4859    1.1353 H         1 ATP         0.1208
     37 HO3'        2.6839   -0.1150    2.2479 H         1 ATP         0.3965
     38 H2'        -0.0017    0.0018    0.0005 H         1 ATP         0.0768
     39 HO2'        0.9369   -2.0558    0.0825 H         1 ATP         0.4074
     40 H1'        -0.1998   -1.6319    2.6178 H         1 ATP         0.0935
     41 H8         -3.0609    0.0200    0.8250 H         1 ATP         0.1424
     42 HN61       -5.2046   -3.9433   -0.8775 H         1 ATP         0.4144
     43 HN62       -4.7849   -5.6332   -0.9625 H         1 ATP         0.4144
     44 H2         -0.6318   -5.9307    0.9993 H         1 ATP         0.0297
@<TRIPOS>BOND
     1    1    2 2
     2    1    3 1
     3    1    4 1
     4    1    8 1
     5    5    6 2
     6    5    7 1
     7    5    8 1
     8    5   12 1
     9    9   10 2
    10    9   11 1
    11    9   12 1
    12    9   13 1
    13   11   32 1
    14   13   14 1
    15   14   15 1
    16   14   33 1
    17   14   34 1
    18   15   16 1
    19   15   17 1
    20   15   35 1
    21   16   21 1
    22   17   18 1
    23   17   19 1
    24   17   36 1
    25   18   37 1
    26   19   20 1
    27   19   21 1
    28   19   38 1
    29   20   39 1
    30   21   22 1
    31   21   40 1
    32   22   23 ar
    33   22   31 ar
    34   23   24 ar
    35   23   41 1
    36   24   25 ar
    37   25   26 ar
    38   25   31 ar
    39   26   27 1
    40   26   28 ar
    41   27   42 1
    42   27   43 1
    43   28   29 ar
    44   29   30 ar
    45   29   44 1
    46   30   31 ar
@<TRIPOS>SUBSTRUCTURE
     1 ATP         1 GROUP 0 A     ****
@<TRIPOS>MOLECULE
[[[5-(6-aminopurin-9-yl)-3,4-dihydroxy-tetrahydrofuran-2-yl]methoxy-hydroxy-phosphoryl]oxy-oxido-phosphoryl] phosphate
   44    46     1     0     0
SMALL
USER_CHARGES

@<TRIPOS>ATOM
      1 PG         -5.3299    7.0966    2.5436 P.3       1 ATP         1.4221
      2 O1G        -6.2172    6.8871    1.3212 O.co2     1 ATP        -0.9341
      3 O2G        -5.8365    6.4202    3.8128 O.co2     1 ATP        -0.9341
      4 O3G        -4.8760    8.5386    2.7460 O.co2     1 ATP        -0.9341
      5 PB         -2.8641    6.4777    0.9623 P.3       1 ATP         1.6363
      6 O1B        -3.5353    6.1088   -0.3419 O.co2     1 ATP        -0.9021
      7 O2B        -2.1767    7.8147    1.1315 O.co2     1 ATP        -0.9021
      8 O3B        -3.9363    6.2956    2.1801 O.3       1 ATP        -0.7799
      9 PA         -0.4427    4.8271    0.6349 P.3       1 ATP         1.7141
     10 O1A         0.6007    5.9021    0.5371 O.2       1 ATP        -0.8703
     11 O2A        -0.9489    4.2532   -0.7905 O.3       1 ATP        -0.8196
     12 O3A        -1.8097    5.2979    1.3615 O.3       1 ATP        -0.7658
     13 O5'         0.0166    3.5128    1.4591 O.3       1 ATP        -0.5841
     14 C5'        -0.8811    2.4285    1.6206 C.3       1 ATP         0.1451
     15 C4'        -0.1994    1.3333    2.4288 C.3       1 ATP         0.0896
     16 O4'        -1.1285    0.2356    2.5840 O.3       1 ATP        -0.3980
     17 C3'         1.0324    0.7610    1.7344 C.3       1 ATP         0.0854
     18 O3'         1.9175    0.2377    2.7247 O.3       1 ATP        -0.5883
     19 C2'         0.4468   -0.3802    0.9263 C.3       1 ATP         0.0574
     20 O2'         1.3993   -1.3703    0.5961 O.3       1 ATP        -0.6005
     21 C1'        -0.6159   -0.9100    1.8769 C.3       1 ATP         0.4284
     22 N9         -1.7127   -1.6108    1.2130 N.pl3     1 ATP        -0.6877
     23 C8         -1.7712   -2.9546    0.9544 C.ar      1 ATP         0.5830
     24 N7         -2.8883   -3.2948    0.3462 N.2       1 ATP        -0.5778
     25 C5         -3.5834   -2.1202    0.2043 C.ar      1 ATP        -0.1986
     26 C6         -4.8225   -1.8251   -0.3554 C.ar      1 ATP         0.7073
     27 N6         -5.6154   -2.8394   -0.9189 N.pl3     1 ATP        -0.9340
     28 N1         -5.2589   -0.5425   -0.3507 N.ar      1 ATP        -0.8111
     29 C2         -4.4510    0.3913    0.2069 C.ar      1 ATP         0.6446
     30 N3         -3.2368    0.2296    0.7767 N.ar      1 ATP        -0.7095
     31 C4         -2.8684   -1.0596    0.7376 C.ar      1 ATP         0.5640
     32 HOA2       -0.2966    3.8365   -1.3930 H         1 ATP         0.4759
     33 H5'1       -1.7777    2.7838    2.1390 H         1 ATP         0.0806
     34 H5'2       -1.1661    2.0530    0.6323 H         1 ATP         0.0806
     35 H4'         0.0402    1.7079    3.4342 H         1 ATP         0.1213
     36 H3'         1.5907    1.4859    1.1353 H         1 ATP         0.1208
     37 HO3'        2.6839   -0.1150    2.2479 H         1 ATP         0.3965
     38 H2'        -0.0017    0.0018    0.0005 H         1 ATP         0.0768
     39 HO2'        2.0953   -0.9375    0.0709 H         1 ATP         0.4074
     40 H1'        -0.1998   -1.6319    2.6178 H         1 ATP         0.0935
     41 H8         -0.9745   -3.6312    1.2318 H         1 ATP         0.1424
     42 HN61       -5.2619   -3.7766   -0.9586 H         1 ATP         0.4144
     43 HN62       -6.4834   -2.5990   -1.3590 H         1 ATP         0.4144
     44 H2         -4.8317    1.4071    0.1930 H         1 ATP         0.0297
@<TRIPOS>BOND
     1    1    2 2
     2    1    3 1
     3    1    4 1
     4    1    8 1
     5    5    6 2
     6    5    7 1
     7    5    8 1
     8    5   12 1
     9    9   10 2
    10    9   11 1
    11    9   12 1
    12    9   13 1
    13   11   32 1
    14   13   14 1
    15   14   15 1
    16   14   33 1
    17   14   34 1
    18   15   16 1
    19   15   17 1
    20   15   35 1
    21   16   21 1
    22   17   18 1
    23   17   19 1
    24   17   36 1
    25   18   37 1
    26   19   20 1
    27   19   21 1
    28   19   38 1
    29   20   39 1
    30   21   22 1
    31   21   40 1
    32   22   23 ar
    33   22   31 ar
    34   23   24 ar
    35   23   41 1
    36   24   25 ar
    37   25   26 ar
    38   25   31 ar
    39   26   27 1
    40   26   28 ar
    41   27   42 1
    42   27   43 1
    43   28   29 ar
    44   29   30 ar
    45   29   44 1
    46   30   31 ar
@<TRIPOS>SUBSTRUCTURE
     1 ATP         1 GROUP 0 A     ****
@<TRIPOS>MOLECULE
[[[5-(6-aminopurin-9-yl)-3,4-dihydroxy-tetrahydrofuran-2-yl]methoxy-hydroxy-phosphoryl]oxy-oxido-phosphoryl] phosphate
   44    46     1     0     0
SMALL
USER_CHARGES

@<TRIPOS>ATOM
      1 PG         -5.5389    0.8674   -1.3785 P.3       1 ATP         1.4221
      2 O1G        -6.7715    1.6403   -1.8355 O.co2     1 ATP        -0.9341
      3 O2G        -4.6827    0.3186   -2.5145 O.co2     1 ATP        -0.9341
      4 O3G        -5.8097   -0.1366   -0.2626 O.co2     1 ATP        -0.9341
      5 PB         -4.8458    2.9901    0.6161 P.3       1 ATP         1.6363
      6 O1B        -5.9311    3.9807    0.2577 O.co2     1 ATP        -0.9021
      7 O2B        -4.9524    2.1374    1.8612 O.co2     1 ATP        -0.9021
      8 O3B        -4.5865    2.0038   -0.6590 O.3       1 ATP        -0.7799
      9 PA         -2.5918    4.4091    1.8810 P.3       1 ATP         1.7141
     10 O1A        -3.4540    5.1134    2.8882 O.2       1 ATP        -0.8703
     11 O2A        -1.4938    5.3545    1.1613 O.3       1 ATP        -0.8196
     12 O3A        -3.4123    3.7693    0.6419 O.3       1 ATP        -0.7658
     13 O5'        -1.7333    3.1724    2.4738 O.3       1 ATP        -0.5841
     14 C5'        -0.8811    2.4285    1.6206 C.3       1 ATP         0.1451
     15 C4'        -0.1994    1.3333    2.4288 C.3       1 ATP         0.0896
     16 O4'        -1.1285    0.2356    2.5840 O.3       1 ATP        -0.3980
     17 C3'         1.0324    0.7610    1.7344 C.3       1 ATP         0.0854
     18 O3'         1.9175    0.2377    2.7247 O.3       1 ATP        -0.5883
     19 C2'         0.4468   -0.3802    0.9263 C.3       1 ATP         0.0574
     20 O2'         1.3993   -1.3703    0.5961 O.3       1 ATP        -0.6005
     21 C1'        -0.6159   -0.9100    1.8769 C.3       1 ATP         0.4284
     22 N9         -1.7127   -1.6108    1.2130 N.pl3     1 ATP        -0.6877
     23 C8         -2.8641   -1.0399    0.7392 C.ar      1 ATP         0.5830
     24 N7         -3.6659   -1.9257    0.1858 N.2       1 ATP        -0.5778
     25 C5         -3.0053   -3.1223    0.3069 C.ar      1 ATP        -0.1986
     26 C6         -3.3321   -4.4178   -0.0813 C.ar      1 ATP         0.7073
     27 N6         -4.5476   -4.6866   -0.7335 N.pl3     1 ATP        -0.9340
     28 N1         -2.4608   -5.4225    0.1773 N.ar      1 ATP        -0.8111
     29 C2         -1.3053   -5.1020    0.8081 C.ar      1 ATP         0.6446
     30 N3         -0.8788   -3.8921    1.2315 N.ar      1 ATP        -0.7095
     31 C4         -1.7870   -2.9477    0.9438 C.ar      1 ATP         0.5640
     32 HOA2       -0.8194    5.8039    1.7138 H         1 ATP         0.4759
     33 H5'1       -1.4792    1.9919    0.8140 H         1 ATP         0.0806
     34 H5'2       -0.1359    3.1032    1.1865 H         1 ATP         0.0806
     35 H4'         0.0402    1.7079    3.4342 H         1 ATP         0.1213
     36 H3'         1.5907    1.4859    1.1353 H         1 ATP         0.1208
     37 HO3'        2.6839   -0.1150    2.2479 H         1 ATP         0.3965
     38 H2'        -0.0017    0.0018    0.0005 H         1 ATP         0.0768
     39 HO2'        0.9369   -2.0558    0.0825 H         1 ATP         0.4074
     40 H1'        -0.1998   -1.6319    2.6178 H         1 ATP         0.0935
     41 H8         -3.0609    0.0200    0.8250 H         1 ATP         0.1424
     42 HN61       -5.2046   -3.9433   -0.8775 H         1 ATP         0.4144
     43 HN62       -4.7849   -5.6332   -0.9625 H         1 ATP         0.4144
     44 H2         -0.6318   -5.9307    0.9993 H         1 ATP         0.0297
@<TRIPOS>BOND
     1    1    2 2
     2    1    3 1
     3    1    4 1
     4    1    8 1
     5    5    6 2
     6    5    7 1
     7    5    8 1
     8    5   12 1
     9    9   10 2
    10    9   11 1
    11    9   12 1
    12    9   13 1
    13   11   32 1
    14   13   14 1
    15   14   15 1
    16   14   33 1
    17   14   34 1
    18   15   16 1
    19   15   17 1
    20   15   35 1
    21   16   21 1
    22   17   18 1
    23   17   19 1
    24   17   36 1
    25   18   37 1
    26   19   20 1
    27   19   21 1
    28   19   38 1
    29   20   39 1
    30   21   22 1
    31   21   40 1
    32   22   23 ar
    33   22   31 ar
    34   23   24 ar
    35   23   41 1
    36   24   25 ar
    37   25   26 ar
    38   25   31 ar
    39   26   27 1
    40   26   28 ar
    41   27   42 1
    42   27   43 1
    43   28   29 ar
    44   29   30 ar
    45   29   44 1
    46   30   31 ar
@<TRIPOS>SUBSTRUCTURE
     1 ATP         1 GROUP 0 A     ****
@<TRIPOS>MOLECULE
[[[5-(6-aminopurin-9-yl)-3,4-dihydroxy-tetrahydrofuran-2-yl]methoxy-hydroxy-phosphoryl]oxy-oxido-phosphoryl] phosphate
   44    46     1     0     0
SMALL
USER_CHARGES

@<TRIPOS>ATOM
      1 PG         -4.3553    6.5545   -1.6328 P.3       1 ATP         1.4221
      2 O1G        -3.8006    7.9372   -1.9589 O.co2     1 ATP        -0.9341
      3 O2G        -4.2957    5.5632   -2.7899 O.co2     1 ATP        -0.9341
      4 O3G        -5.6926    6.5753   -0.8996 O.co2     1 ATP        -0.9341
      5 PB         -2.8641    6.4777    0.9623 P.3       1 ATP         1.6363
      6 O1B        -2.1048    7.7768    0.8094 O.co2     1 ATP        -0.9021
      7 O2B        -4.0632    6.3818    1.8796 O.co2     1 ATP        -0.9021
      8 O3B        -3.3070    5.9456   -0.5165 O.3       1 ATP        -0.7799
      9 PA         -0.4427    4.8271    0.6349 P.3       1 ATP         1.7141
     10 O1A         0.6007    5.9021    0.5371 O.2       1 ATP        -0.8703
     11 O2A        -0.9489    4.2532   -0.7905 O.3       1 ATP        -0.8196
     12 O3A        -1.8097    5.2979    1.3615 O.3       1 ATP        -0.7658
     13 O5'         0.0166    3.5128    1.4591 O.3       1 ATP        -0.5841
     14 C5'        -0.8811    2.4285    1.6206 C.3       1 ATP         0.1451
     15 C4'        -0.1994    1.3333    2.4288 C.3       1 ATP         0.0896
     16 O4'        -1.1285    0.2356    2.5840 O.3       1 ATP        -0.3980
     17 C3'         1.0324    0.7610    1.7344 C.3       1 ATP         0.0854
     18 O3'         1.9175    0.2377    2.7247 O.3       1 ATP        -0.5883
     19 C2'         0.4468   -0.3802    0.9263 C.3       1 ATP         0.0574
     20 O2'         1.3993   -1.3703    0.5961 O.3       1 ATP        -0.6005
     21 C1'        -0.6159   -0.9100    1.8769 C.3       1 ATP         0.4284
     22 N9         -1.7127   -1.6108    1.2130 N.pl3     1 ATP        -0.6877
     23 C8         -1.7712   -2.9546    0.9544 C.ar      1 ATP         0.5830
     24 N7         -2.8883   -3.2948    0.3462 N.2       1 ATP        -0.5778
     25 C5         -3.5834   -2.1202    0.2043 C.ar      1 ATP        -0.1986
     26 C6         -4.8225   -1.8251   -0.3554 C.ar      1 ATP         0.7073
     27 N6         -5.6154   -2.8394   -0.9189 N.pl3     1 ATP        -0.9340
     28 N1         -5.2589   -0.5425   -0.3507 N.ar      1 ATP        -0.8111
     29 C2         -4.4510    0.3913    0.2069 C.ar      1 ATP         0.6446
     30 N3         -3.2368    0.2296    0.7767 N.ar      1 ATP        -0.7095
     31 C4         -2.8684   -1.0596    0.7376 C.ar      1 ATP         0.5640
     32 HOA2       -1.3649    4.8701   -1.4297 H         1 ATP         0.4759
     33 H5'1       -1.7777    2.7838    2.1390 H         1 ATP         0.0806
     34 H5'2       -1.1661    2.0530    0.6323 H         1 ATP         0.0806
     35 H4'         0.0402    1.7079    3.4342 H         1 ATP         0.1213
     36 H3'         1.5907    1.4859    1.1353 H         1 ATP         0.1208
     37 HO3'        2.6839   -0.1150    2.2479 H         1 ATP         0.3965
     38 H2'        -0.0017    0.0018    0.0005 H         1 ATP         0.0768
     39 HO2'        2.0953   -0.9375    0.0709 H         1 ATP         0.4074
     40 H1'        -0.1998   -1.6319    2.6178 H         1 ATP         0.0935
     41 H8         -0.9745   -3.6312    1.2318 H         1 ATP         0.1424
     42 HN61       -5.2619   -3.7766   -0.9586 H         1 ATP         0.4144
     43 HN62       -6.4834   -2.5990   -1.3590 H         1 ATP         0.4144
     44 H2         -4.8317    1.4071    0.1930 H         1 ATP         0.0297
@<TRIPOS>BOND
     1    1    2 2
     2    1    3 1
     3    1    4 1
     4    1    8 1
     5    5    6 2
     6    5    7 1
     7    5    8 1
     8    5   12 1
     9    9   10 2
    10    9   11 1
    11    9   12 1
    12    9   13 1
    13   11   32 1
    14   13   14 1
    15   14   15 1
    16   14   33 1
    17   14   34 1
    18   15   16 1
    19   15   17 1
    20   15   35 1
    21   16   21 1
    22   17   18 1
    23   17   19 1
    24   17   36 1
    25   18   37 1
    26   19   20 1
    27   19   21 1
    28   19   38 1
    29   20   39 1
    30   21   22 1
    31   21   40 1
    32   22   23 ar
    33   22   31 ar
    34   23   24 ar
    35   23   41 1
    36   24   25 ar
    37   25   26 ar
    38   25   31 ar
    39   26   27 1
    40   26   28 ar
    41   27   42 1
    42   27   43 1
    43   28   29 ar
    44   29   30 ar
    45   29   44 1
    46   30   31 ar
@<TRIPOS>SUBSTRUCTURE
     1 ATP         1 GROUP 0 A     ****
@<TRIPOS>MOLECULE
[[[5-(6-aminopurin-9-yl)-3,4-dihydroxy-tetrahydrofuran-2-yl]methoxy-hydroxy-phosphoryl]oxy-oxido-phosphoryl] phosphate
   44    46     1     0     0
SMALL
USER_CHARGES

@<TRIPOS>ATOM
      1 PG         -7.2293    3.4911   -1.1582 P.3       1 ATP         1.4221
      2 O1G        -7.9253    2.6186   -0.1189 O.co2     1 ATP        -0.9341
      3 O2G        -7.7393    4.9268   -1.2184 O.co2     1 ATP        -0.9341
      4 O3G        -7.0704    2.8296   -2.5234 O.co2     1 ATP        -0.9341
      5 PB         -4.5348    2.5078   -0.2997 P.3       1 ATP         1.6363
      6 O1B        -4.9817    1.6558    0.8673 O.co2     1 ATP        -0.9021
      7 O2B        -4.1250    1.8755   -1.6116 O.co2     1 ATP        -0.9021
      8 O3B        -5.6820    3.6281   -0.6078 O.3       1 ATP        -0.7799
      9 PA         -2.9678    4.0282    1.6820 P.3       1 ATP         1.7141
     10 O1A        -4.1634    4.3948    2.5127 O.2       1 ATP        -0.8703
     11 O2A        -1.9459    5.2509    1.4023 O.3       1 ATP        -0.8196
     12 O3A        -3.3330    3.4923    0.1996 O.3       1 ATP        -0.7658
     13 O5'        -2.0394    2.8623    2.3117 O.3       1 ATP        -0.5841
     14 C5'        -0.8811    2.4285    1.6206 C.3       1 ATP         0.1451
     15 C4'        -0.1994    1.3333    2.4288 C.3       1 ATP         0.0896
     16 O4'        -1.1285    0.2356    2.5840 O.3       1 ATP        -0.3980
     17 C3'         1.0324    0.7610    1.7344 C.3       1 ATP         0.0854
     18 O3'         1.9175    0.2377    2.7247 O.3       1 ATP        -0.5883
     19 C2'         0.4468   -0.3802    0.9263 C.3       1 ATP         0.0574
     20 O2'         1.3993   -1.3703    0.5961 O.3       1 ATP        -0.6005
     21 C1'        -0.6159   -0.9100    1.8769 C.3       1 ATP         0.4284
     22 N9         -1.7127   -1.6108    1.2130 N.pl3     1 ATP        -0.6877
     23 C8         -2.5476   -1.0844    0.2632 C.ar      1 ATP         0.5830
     24 N7         -3.4391   -1.9591   -0.1536 N.2       1 ATP        -0.5778
     25 C5         -3.1701   -3.1016    0.5574 C.ar      1 ATP        -0.1986
     26 C6         -3.7593   -4.3620    0.5656 C.ar      1 ATP         0.7073
     27 N6         -4.8512   -4.6493   -0.2712 N.pl3     1 ATP        -0.9340
     28 N1         -3.2659   -5.3144    1.3932 N.ar      1 ATP        -0.8111
     29 C2         -2.2122   -4.9785    2.1759 C.ar      1 ATP         0.6446
     30 N3         -1.5595   -3.7985    2.2572 N.ar      1 ATP        -0.7095
     31 C4         -2.0986   -2.9054    1.4140 C.ar      1 ATP         0.5640
     32 HOA2       -1.5225    5.6993    2.1651 H         1 ATP         0.4759
     33 H5'1       -1.1757    2.0497    0.6364 H         1 ATP         0.0806
     34 H5'2       -0.2069    3.2809    1.4872 H         1 ATP         0.0806
     35 H4'         0.0402    1.7079    3.4342 H         1 ATP         0.1213
     36 H3'         1.5907    1.4859    1.1353 H         1 ATP         0.1208
     37 HO3'        2.6839   -0.1150    2.2479 H         1 ATP         0.3965
     38 H2'        -0.0017    0.0018    0.0005 H         1 ATP         0.0768
     39 HO2'        2.0953   -0.9375    0.0709 H         1 ATP         0.4074
     40 H1'        -0.1998   -1.6319    2.6178 H         1 ATP         0.0935
     41 H8         -2.4576   -0.0639   -0.0831 H         1 ATP         0.1424
     42 HN61       -5.2371   -3.9234   -0.8448 H         1 ATP         0.4144
     43 HN62       -5.2909   -5.5485   -0.2160 H         1 ATP         0.4144
     44 H2         -1.8433   -5.7650    2.8259 H         1 ATP         0.0297
@<TRIPOS>BOND
     1    1    2 2
     2    1    3 1
     3    1    4 1
     4    1    8 1
     5    5    6 2
     6    5    7 1
     7    5    8 1
     8    5   12 1
     9    9   10 2
    10    9   11 1
    11    9   12 1
    12    9   13 1
    13   11   32 1
    14   13   14 1
    15   14   15 1
    16   14   33 1
    17   14   34 1
    18   15   16 1
    19   15   17 1
    20   15   35 1
    21   16   21 1
    22   17   18 1
    23   17   19 1
    24   17   36 1
    25   18   37 1
    26   19   20 1
    27   19   21 1
    28   19   38 1
    29   20   39 1
    30   21   22 1
    31   21   40 1
    32   22   23 ar
    33   22   31 ar
    34   23   24 ar
    35   23   41 1
    36   24   25 ar
    37   25   26 ar
    38   25   31 ar
    39   26   27 1
    40   26   28 ar
    41   27   42 1
    42   27   43 1
    43   28   29 ar
    44   29   30 ar
    45   29   44 1
    46   30   31 ar
@<TRIPOS>SUBSTRUCTURE
     1 ATP         1 GROUP 0 A     ****
@<TRIPOS>MOLECULE
[[[5-(6-aminopurin-9-yl)-3,4-dihydroxy-tetrahydrofuran-2-yl]methoxy-hydroxy-phosphoryl]oxy-oxido-phosphoryl] phosphate
   44    46     1     0     0
SMALL
USER_CHARGES

@<TRIPOS>ATOM
      1 PG         -2.1129    9.3690    0.7623 P.3       1 ATP         1.4221
      2 O1G        -3.1777    9.7595    1.7818 O.co2     1 ATP        -0.9341
      3 O2G        -0.7506   10.0127    0.9967 O.co2     1 ATP        -0.9341
      4 O3G        -2.5858    9.4239   -0.6868 O.co2     1 ATP        -0.9341
      5 PB         -2.8641    6.4777    0.9623 P.3       1 ATP         1.6363
      6 O1B        -3.8942    6.6016    2.0627 O.co2     1 ATP        -0.9021
      7 O2B        -3.2848    6.2800   -0.4774 O.co2     1 ATP        -0.9021
      8 O3B        -1.8591    7.7628    1.0300 O.3       1 ATP        -0.7799
      9 PA         -0.4427    4.8271    0.6349 P.3       1 ATP         1.7141
     10 O1A         0.6007    5.9021    0.5371 O.2       1 ATP        -0.8703
     11 O2A        -0.9489    4.2532   -0.7905 O.3       1 ATP        -0.8196
     12 O3A        -1.8097    5.2979    1.3615 O.3       1 ATP        -0.7658
     13 O5'         0.0166    3.5128    1.4591 O.3       1 ATP        -0.5841
     14 C5'        -0.8811    2.4285    1.6206 C.3       1 ATP         0.1451
     15 C4'        -0.1994    1.3333    2.4288 C.3       1 ATP         0.0896
     16 O4'        -1.1285    0.2356    2.5840 O.3       1 ATP        -0.3980
     17 C3'         1.0324    0.7610    1.7344 C.3       1 ATP         0.0854
     18 O3'         1.9175    0.2377    2.7247 O.3       1 ATP        -0.5883
     19 C2'         0.4468   -0.3802    0.9263 C.3       1 ATP         0.0574
     20 O2'         1.3993   -1.3703    0.5961 O.3       1 ATP        -0.6005
     21 C1'        -0.6159   -0.9100    1.8769 C.3       1 ATP         0.4284
     22 N9         -1.7127   -1.6108    1.2130 N.pl3     1 ATP        -0.6877
     23 C8         -1.7712   -2.9546    0.9544 C.ar      1 ATP         0.5830
     24 N7         -2.8883   -3.2948    0.3462 N.2       1 ATP        -0.5778
     25 C5         -3.5834   -2.1202    0.2043 C.ar      1 ATP        -0.1986
     26 C6         -4.8225   -1.8251   -0.3554 C.ar      1 ATP         0.7073
     27 N6         -5.6154   -2.8394   -0.9189 N.pl3     1 ATP        -0.9340
     28 N1         -5.2589   -0.5425   -0.3507 N.ar      1 ATP        -0.8111
     29 C2         -4.4510    0.3913    0.2069 C.ar      1 ATP         0.6446
     30 N3         -3.2368    0.2296    0.7767 N.ar      1 ATP        -0.7095
     31 C4         -2.8684   -1.0596    0.7376 C.ar      1 ATP         0.5640
     32 HOA2       -0.2966    3.8365   -1.3930 H         1 ATP         0.4759
     33 H5'1       -1.7777    2.7838    2.1390 H         1 ATP         0.0806
     34 H5'2       -1.1661    2.0530    0.6323 H         1 ATP         0.0806
     35 H4'         0.0402    1.7079    3.4342 H         1 ATP         0.1213
     36 H3'         1.5907    1.4859    1.1353 H         1 ATP         0.1208
     37 HO3'        2.6839   -0.1150    2.2479 H         1 ATP         0.3965
     38 H2'        -0.0017    0.0018    0.0005 H         1 ATP         0.0768
     39 HO2'        2.0953   -0.9375    0.0709 H         1 ATP         0.4074
     40 H1'        -0.1998   -1.6319    2.6178 H         1 ATP         0.0935
     41 H8         -0.9745   -3.6312    1.2318 H         1 ATP         0.1424
     42 HN61       -5.2619   -3.7766   -0.9586 H         1 ATP         0.4144
     43 HN62       -6.4834   -2.5990   -1.3590 H         1 ATP         0.4144
     44 H2         -4.8317    1.4071    0.1930 H         1 ATP         0.0297
@<TRIPOS>BOND
     1    1    2 2
     2    1    3 1
     3    1    4 1
     4    1    8 1
     5    5    6 2
     6    5    7 1
     7    5    8 1
     8    5   12 1
     9    9   10 2
    10    9   11 1
    11    9   12 1
    12    9   13 1
    13   11   32 1
    14   13   14 1
    15   14   15 1
    16   14   33 1
    17   14   34 1
    18   15   16 1
    19   15   17 1
    20   15   35 1
    21   16   21 1
    22   17   18 1
    23   17   19 1
    24   17   36 1
    25   18   37 1
    26   19   20 1
    27   19   21 1
    28   19   38 1
    29   20   39 1
    30   21   22 1
    31   21   40 1
    32   22   23 ar
    33   22   31 ar
    34   23   24 ar
    35   23   41 1
    36   24   25 ar
    37   25   26 ar
    38   25   31 ar
    39   26   27 1
    40   26   28 ar
    41   27   42 1
    42   27   43 1
    43   28   29 ar
    44   29   30 ar
    45   29   44 1
    46   30   31 ar
@<TRIPOS>SUBSTRUCTURE
     1 ATP         1 GROUP 0 A     ****
@<TRIPOS>MOLECULE
[[[5-(6-aminopurin-9-yl)-3,4-dihydroxy-tetrahydrofuran-2-yl]methoxy-hydroxy-phosphoryl]oxy-oxido-phosphoryl] phosphate
   44    46     1     0     0
SMALL
USER_CHARGES

@<TRIPOS>ATOM
      1 PG         -1.4862    7.9355   -0.5035 P.3       1 ATP         1.4221
      2 O1G        -0.6978    7.8496    0.7991 O.co2     1 ATP        -0.9341
      3 O2G        -0.6524    8.3233   -1.7197 O.co2     1 ATP        -0.9341
      4 O3G        -2.8051    8.6927   -0.3863 O.co2     1 ATP        -0.9341
      5 PB         -2.8586    5.3348    0.0594 P.3       1 ATP         1.6363
      6 O1B        -4.1783    5.9911    0.3992 O.co2     1 ATP        -0.9021
      7 O2B        -2.8148    3.9898   -0.6317 O.co2     1 ATP        -0.9021
      8 O3B        -1.9520    6.3834   -0.8034 O.3       1 ATP        -0.7799
      9 PA         -2.1747    4.4070    2.7734 P.3       1 ATP         1.7141
     10 O1A        -3.4489    4.7361    3.4959 O.2       1 ATP        -0.8703
     11 O2A        -0.8289    4.6933    3.6245 O.3       1 ATP        -0.8196
     12 O3A        -1.9501    5.2528    1.4125 O.3       1 ATP        -0.7658
     13 O5'        -2.0394    2.8623    2.3117 O.3       1 ATP        -0.5841
     14 C5'        -0.8811    2.4285    1.6206 C.3       1 ATP         0.1451
     15 C4'        -0.1994    1.3333    2.4288 C.3       1 ATP         0.0896
     16 O4'        -1.1285    0.2356    2.5840 O.3       1 ATP        -0.3980
     17 C3'         1.0324    0.7610    1.7344 C.3       1 ATP         0.0854
     18 O3'         1.9175    0.2377    2.7247 O.3       1 ATP        -0.5883
     19 C2'         0.4468   -0.3802    0.9263 C.3       1 ATP         0.0574
     20 O2'         1.3993   -1.3703    0.5961 O.3       1 ATP        -0.6005
     21 C1'        -0.6159   -0.9100    1.8769 C.3       1 ATP         0.4284
     22 N9         -1.7127   -1.6108    1.2130 N.pl3     1 ATP        -0.6877
     23 C8         -2.8641   -1.0399    0.7392 C.ar      1 ATP         0.5830
     24 N7         -3.6659   -1.9257    0.1858 N.2       1 ATP        -0.5778
     25 C5         -3.0053   -3.1223    0.3069 C.ar      1 ATP        -0.1986
     26 C6         -3.3321   -4.4178   -0.0813 C.ar      1 ATP         0.7073
     27 N6         -4.5476   -4.6866   -0.7335 N.pl3     1 ATP        -0.9340
     28 N1         -2.4608   -5.4225    0.1773 N.ar      1 ATP        -0.8111
     29 C2         -1.3053   -5.1020    0.8081 C.ar      1 ATP         0.6446
     30 N3         -0.8788   -3.8921    1.2315 N.ar      1 ATP        -0.7095
     31 C4         -1.7870   -2.9477    0.9438 C.ar      1 ATP         0.5640
     32 HOA2       -0.6967    4.2235    4.4754 H         1 ATP         0.4759
     33 H5'1       -1.1757    2.0497    0.6364 H         1 ATP         0.0806
     34 H5'2       -0.2069    3.2809    1.4872 H         1 ATP         0.0806
     35 H4'         0.0402    1.7079    3.4342 H         1 ATP         0.1213
     36 H3'         1.5907    1.4859    1.1353 H         1 ATP         0.1208
     37 HO3'        2.1521    0.9800    3.3017 H         1 ATP         0.3965
     38 H2'        -0.0017    0.0018    0.0005 H         1 ATP         0.0768
     39 HO2'        0.9369   -2.0558    0.0825 H         1 ATP         0.4074
     40 H1'        -0.1998   -1.6319    2.6178 H         1 ATP         0.0935
     41 H8         -3.0609    0.0200    0.8250 H         1 ATP         0.1424
     42 HN61       -5.2046   -3.9433   -0.8775 H         1 ATP         0.4144
     43 HN62       -4.7849   -5.6332   -0.9625 H         1 ATP         0.4144
     44 H2         -0.6318   -5.9307    0.9993 H         1 ATP         0.0297
@<TRIPOS>BOND
     1    1    2 2
     2    1    3 1
     3    1    4 1
     4    1    8 1
     5    5    6 2
     6    5    7 1
     7    5    8 1
     8    5   12 1
     9    9   10 2
    10    9   11 1
    11    9   12 1
    12    9   13 1
    13   11   32 1
    14   13   14 1
    15   14   15 1
    16   14   33 1
    17   14   34 1
    18   15   16 1
    19   15   17 1
    20   15   35 1
    21   16   21 1
    22   17   18 1
    23   17   19 1
    24   17   36 1
    25   18   37 1
    26   19   20 1
    27   19   21 1
    28   19   38 1
    29   20   39 1
    30   21   22 1
    31   21   40 1
    32   22   23 ar
    33   22   31 ar
    34   23   24 ar
    35   23   41 1
    36   24   25 ar
    37   25   26 ar
    38   25   31 ar
    39   26   27 1
    40   26   28 ar
    41   27   42 1
    42   27   43 1
    43   28   29 ar
    44   29   30 ar
    45   29   44 1
    46   30   31 ar
@<TRIPOS>SUBSTRUCTURE
     1 ATP         1 GROUP 0 A     ****
@<TRIPOS>MOLECULE
[[[5-(6-aminopurin-9-yl)-3,4-dihydroxy-tetrahydrofuran-2-yl]methoxy-hydroxy-phosphoryl]oxy-oxido-phosphoryl] phosphate
   44    46     1     0     0
SMALL
USER_CHARGES

@<TRIPOS>ATOM
      1 PG         -0.4542    6.2175   -1.4008 P.3       1 ATP         1.4221
      2 O1G        -0.5360    4.7211   -1.1184 O.co2     1 ATP        -0.9341
      3 O2G        -0.8599    6.6143   -2.8161 O.co2     1 ATP        -0.9341
      4 O3G         0.8336    6.8751   -0.9153 O.co2     1 ATP        -0.9341
      5 PB         -1.8289    6.8634    1.1793 P.3       1 ATP         1.6363
      6 O1B        -0.5635    7.3570    1.8446 O.co2     1 ATP        -0.9021
      7 O2B        -3.1676    7.4964    1.4893 O.co2     1 ATP        -0.9021
      8 O3B        -1.6175    6.8799   -0.4396 O.3       1 ATP        -0.7799
      9 PA         -2.1747    4.4070    2.7734 P.3       1 ATP         1.7141
     10 O1A        -3.4489    4.7361    3.4959 O.2       1 ATP        -0.8703
     11 O2A        -0.8289    4.6933    3.6245 O.3       1 ATP        -0.8196
     12 O3A        -1.9501    5.2528    1.4125 O.3       1 ATP        -0.7658
     13 O5'        -2.0394    2.8623    2.3117 O.3       1 ATP        -0.5841
     14 C5'        -0.8811    2.4285    1.6206 C.3       1 ATP         0.1451
     15 C4'        -0.1994    1.3333    2.4288 C.3       1 ATP         0.0896
     16 O4'        -1.1285    0.2356    2.5840 O.3       1 ATP        -0.3980
     17 C3'         1.0324    0.7610    1.7344 C.3       1 ATP         0.0854
     18 O3'         1.9175    0.2377    2.7247 O.3       1 ATP        -0.5883
     19 C2'         0.4468   -0.3802    0.9263 C.3       1 ATP         0.0574
     20 O2'         1.3993   -1.3703    0.5961 O.3       1 ATP        -0.6005
     21 C1'        -0.6159   -0.9100    1.8769 C.3       1 ATP         0.4284
     22 N9         -1.7127   -1.6108    1.2130 N.pl3     1 ATP        -0.6877
     23 C8         -1.7712   -2.9546    0.9544 C.ar      1 ATP         0.5830
     24 N7         -2.8883   -3.2948    0.3462 N.2       1 ATP        -0.5778
     25 C5         -3.5834   -2.1202    0.2043 C.ar      1 ATP        -0.1986
     26 C6         -4.8225   -1.8251   -0.3554 C.ar      1 ATP         0.7073
     27 N6         -5.6154   -2.8394   -0.9189 N.pl3     1 ATP        -0.9340
     28 N1         -5.2589   -0.5425   -0.3507 N.ar      1 ATP        -0.8111
     29 C2         -4.4510    0.3913    0.2069 C.ar      1 ATP         0.6446
     30 N3         -3.2368    0.2296    0.7767 N.ar      1 ATP        -0.7095
     31 C4         -2.8684   -1.0596    0.7376 C.ar      1 ATP         0.5640
     32 HOA2       -0.6967    4.2235    4.4754 H         1 ATP         0.4759
     33 H5'1       -1.1757    2.0497    0.6364 H         1 ATP         0.0806
     34 H5'2       -0.2069    3.2809    1.4872 H         1 ATP         0.0806
     35 H4'         0.0402    1.7079    3.4342 H         1 ATP         0.1213
     36 H3'         1.5907    1.4859    1.1353 H         1 ATP         0.1208
     37 HO3'        2.6839   -0.1150    2.2479 H         1 ATP         0.3965
     38 H2'        -0.0017    0.0018    0.0005 H         1 ATP         0.0768
     39 HO2'        0.9369   -2.0558    0.0825 H         1 ATP         0.4074
     40 H1'        -0.1998   -1.6319    2.6178 H         1 ATP         0.0935
     41 H8         -0.9745   -3.6312    1.2318 H         1 ATP         0.1424
     42 HN61       -5.2619   -3.7766   -0.9586 H         1 ATP         0.4144
     43 HN62       -6.4834   -2.5990   -1.3590 H         1 ATP         0.4144
     44 H2         -4.8317    1.4071    0.1930 H         1 ATP         0.0297
@<TRIPOS>BOND
     1    1    2 2
     2    1    3 1
     3    1    4 1
     4    1    8 1
     5    5    6 2
     6    5    7 1
     7    5    8 1
     8    5   12 1
     9    9   10 2
    10    9   11 1
    11    9   12 1
    12    9   13 1
    13   11   32 1
    14   13   14 1
    15   14   15 1
    16   14   33 1
    17   14   34 1
    18   15   16 1
    19   15   17 1
    20   15   35 1
    21   16   21 1
    22   17   18 1
    23   17   19 1
    24   17   36 1
    25   18   37 1
    26   19   20 1
    27   19   21 1
    28   19   38 1
    29   20   39 1
    30   21   22 1
    31   21   40 1
    32   22   23 ar
    33   22   31 ar
    34   23   24 ar
    35   23   41 1
    36   24   25 ar
    37   25   26 ar
    38   25   31 ar
    39   26   27 1
    40   26   28 ar
    41   27   42 1
    42   27   43 1
    43   28   29 ar
    44   29   30 ar
    45   29   44 1
    46   30   31 ar
@<TRIPOS>SUBSTRUCTURE
     1 ATP         1 GROUP 0 A     ****
@<TRIPOS>MOLECULE
[[[5-(6-aminopurin-9-yl)-3,4-dihydroxy-tetrahydrofuran-2-yl]methoxy-hydroxy-phosphoryl]oxy-oxido-phosphoryl] phosphate
   44    46     1     0     0
SMALL
USER_CHARGES

@<TRIPOS>ATOM
      1 PG         -3.9947    8.8048    1.8895 P.3       1 ATP         1.4221
      2 O1G        -4.0485    9.3324    0.4596 O.co2     1 ATP        -0.9341
      3 O2G        -5.3593    8.5184    2.5067 O.co2     1 ATP        -0.9341
      4 O3G        -3.0475    9.5750    2.8040 O.co2     1 ATP        -0.9341
      5 PB         -1.8289    6.8634    1.1793 P.3       1 ATP         1.6363
      6 O1B        -1.7778    7.1368   -0.3073 O.co2     1 ATP        -0.9021
      7 O2B        -0.7628    7.4048    2.1061 O.co2     1 ATP        -0.9021
      8 O3B        -3.2871    7.3228    1.7528 O.3       1 ATP        -0.7799
      9 PA         -2.1747    4.4070    2.7734 P.3       1 ATP         1.7141
     10 O1A        -3.4489    4.7361    3.4959 O.2       1 ATP        -0.8703
     11 O2A        -0.8289    4.6933    3.6245 O.3       1 ATP        -0.8196
     12 O3A        -1.9501    5.2528    1.4125 O.3       1 ATP        -0.7658
     13 O5'        -2.0394    2.8623    2.3117 O.3       1 ATP        -0.5841
     14 C5'        -0.8811    2.4285    1.6206 C.3       1 ATP         0.1451
     15 C4'        -0.1994    1.3333    2.4288 C.3       1 ATP         0.0896
     16 O4'        -1.1285    0.2356    2.5840 O.3       1 ATP        -0.3980
     17 C3'         1.0324    0.7610    1.7344 C.3       1 ATP         0.0854
     18 O3'         1.9175    0.2377    2.7247 O.3       1 ATP        -0.5883
     19 C2'         0.4468   -0.3802    0.9263 C.3       1 ATP         0.0574
     20 O2'         1.3993   -1.3703    0.5961 O.3       1 ATP        -0.6005
     21 C1'        -0.6159   -0.9100    1.8769 C.3       1 ATP         0.4284
     22 N9         -1.7127   -1.6108    1.2130 N.pl3     1 ATP        -0.6877
     23 C8         -2.8641   -1.0399    0.7392 C.ar      1 ATP         0.5830
     24 N7         -3.6659   -1.9257    0.1858 N.2       1 ATP        -0.5778
     25 C5         -3.0053   -3.1223    0.3069 C.ar      1 ATP        -0.1986
     26 C6         -3.3321   -4.4178   -0.0813 C.ar      1 ATP         0.7073
     27 N6         -4.5476   -4.6866   -0.7335 N.pl3     1 ATP        -0.9340
     28 N1         -2.4608   -5.4225    0.1773 N.ar      1 ATP        -0.8111
     29 C2         -1.3053   -5.1020    0.8081 C.ar      1 ATP         0.6446
     30 N3         -0.8788   -3.8921    1.2315 N.ar      1 ATP        -0.7095
     31 C4         -1.7870   -2.9477    0.9438 C.ar      1 ATP         0.5640
     32 HOA2       -0.6967    4.2235    4.4754 H         1 ATP         0.4759
     33 H5'1       -1.1757    2.0497    0.6364 H         1 ATP         0.0806
     34 H5'2       -0.2069    3.2809    1.4872 H         1 ATP         0.0806
     35 H4'         0.0402    1.7079    3.4342 H         1 ATP         0.1213
     36 H3'         1.5907    1.4859    1.1353 H         1 ATP         0.1208
     37 HO3'        2.6839   -0.1150    2.2479 H         1 ATP         0.3965
     38 H2'        -0.0017    0.0018    0.0005 H         1 ATP         0.0768
     39 HO2'        2.0953   -0.9375    0.0709 H         1 ATP         0.4074
     40 H1'        -0.1998   -1.6319    2.6178 H         1 ATP         0.0935
     41 H8         -3.0609    0.0200    0.8250 H         1 ATP         0.1424
     42 HN61       -5.2046   -3.9433   -0.8775 H         1 ATP         0.4144
     43 HN62       -4.7849   -5.6332   -0.9625 H         1 ATP         0.4144
     44 H2         -0.6318   -5.9307    0.9993 H         1 ATP         0.0297
@<TRIPOS>BOND
     1    1    2 2
     2    1    3 1
     3    1    4 1
     4    1    8 1
     5    5    6 2
     6    5    7 1
     7    5    8 1
     8    5   12 1
     9    9   10 2
    10    9   11 1
    11    9   12 1
    12    9   13 1
    13   11   32 1
    14   13   14 1
    15   14   15 1
    16   14   33 1
    17   14   34 1
    18   15   16 1
    19   15   17 1
    20   15   35 1
    21   16   21 1
    22   17   18 1
    23   17   19 1
    24   17   36 1
    25   18   37 1
    26   19   20 1
    27   19   21 1
    28   19   38 1
    29   20   39 1
    30   21   22 1
    31   21   40 1
    32   22   23 ar
    33   22   31 ar
    34   23   24 ar
    35   23   41 1
    36   24   25 ar
    37   25   26 ar
    38   25   31 ar
    39   26   27 1
    40   26   28 ar
    41   27   42 1
    42   27   43 1
    43   28   29 ar
    44   29   30 ar
    45   29   44 1
    46   30   31 ar
@<TRIPOS>SUBSTRUCTURE
     1 ATP         1 GROUP 0 A     ****
@<TRIPOS>MOLECULE
[[[5-(6-aminopurin-9-yl)-3,4-dihydroxy-tetrahydrofuran-2-yl]methoxy-hydroxy-phosphoryl]oxy-oxido-phosphoryl] phosphate
   44    46     1     0     0
SMALL
USER_CHARGES

@<TRIPOS>ATOM
      1 PG          0.2853    8.5634    2.4459 P.3       1 ATP         1.4221
      2 O1G        -0.7644    9.4656    3.0861 O.co2     1 ATP        -0.9341
      3 O2G         1.4071    8.1368    3.3863 O.co2     1 ATP        -0.9341
      4 O3G         0.7666    9.0383    1.0786 O.co2     1 ATP        -0.9341
      5 PB         -1.8289    6.8634    1.1793 P.3       1 ATP         1.6363
      6 O1B        -3.0372    7.5355    1.7924 O.co2     1 ATP        -0.9021
      7 O2B        -1.4493    7.1134   -0.2636 O.co2     1 ATP        -0.9021
      8 O3B        -0.5236    7.1669    2.1121 O.3       1 ATP        -0.7799
      9 PA         -2.1747    4.4070    2.7734 P.3       1 ATP         1.7141
     10 O1A        -3.4489    4.7361    3.4959 O.2       1 ATP        -0.8703
     11 O2A        -0.8289    4.6933    3.6245 O.3       1 ATP        -0.8196
     12 O3A        -1.9501    5.2528    1.4125 O.3       1 ATP        -0.7658
     13 O5'        -2.0394    2.8623    2.3117 O.3       1 ATP        -0.5841
     14 C5'        -0.8811    2.4285    1.6206 C.3       1 ATP         0.1451
     15 C4'        -0.1994    1.3333    2.4288 C.3       1 ATP         0.0896
     16 O4'        -1.1285    0.2356    2.5840 O.3       1 ATP        -0.3980
     17 C3'         1.0324    0.7610    1.7344 C.3       1 ATP         0.0854
     18 O3'         1.9175    0.2377    2.7247 O.3       1 ATP        -0.5883
     19 C2'         0.4468   -0.3802    0.9263 C.3       1 ATP         0.0574
     20 O2'         1.3993   -1.3703    0.5961 O.3       1 ATP        -0.6005
     21 C1'        -0.6159   -0.9100    1.8769 C.3       1 ATP         0.4284
     22 N9         -1.7127   -1.6108    1.2130 N.pl3     1 ATP        -0.6877
     23 C8         -2.8641   -1.0399    0.7392 C.ar      1 ATP         0.5830
     24 N7         -3.6659   -1.9257    0.1858 N.2       1 ATP        -0.5778
     25 C5         -3.0053   -3.1223    0.3069 C.ar      1 ATP        -0.1986
     26 C6         -3.3321   -4.4178   -0.0813 C.ar      1 ATP         0.7073
     27 N6         -4.5476   -4.6866   -0.7335 N.pl3     1 ATP        -0.9340
     28 N1         -2.4608   -5.4225    0.1773 N.ar      1 ATP        -0.8111
     29 C2         -1.3053   -5.1020    0.8081 C.ar      1 ATP         0.6446
     30 N3         -0.8788   -3.8921    1.2315 N.ar      1 ATP        -0.7095
     31 C4         -1.7870   -2.9477    0.9438 C.ar      1 ATP         0.5640
     32 HOA2       -0.6967    4.2235    4.4754 H         1 ATP         0.4759
     33 H5'1       -1.1757    2.0497    0.6364 H         1 ATP         0.0806
     34 H5'2       -0.2069    3.2809    1.4872 H         1 ATP         0.0806
     35 H4'         0.0402    1.7079    3.4342 H         1 ATP         0.1213
     36 H3'         1.5907    1.4859    1.1353 H         1 ATP         0.1208
     37 HO3'        2.6839   -0.1150    2.2479 H         1 ATP         0.3965
     38 H2'        -0.0017    0.0018    0.0005 H         1 ATP         0.0768
     39 HO2'        2.0953   -0.9375    0.0709 H         1 ATP         0.4074
     40 H1'        -0.1998   -1.6319    2.6178 H         1 ATP         0.0935
     41 H8         -3.0609    0.0200    0.8250 H         1 ATP         0.1424
     42 HN61       -5.2046   -3.9433   -0.8775 H         1 ATP         0.4144
     43 HN62       -4.7849   -5.6332   -0.9625 H         1 ATP         0.4144
     44 H2         -0.6318   -5.9307    0.9993 H         1 ATP         0.0297
@<TRIPOS>BOND
     1    1    2 2
     2    1    3 1
     3    1    4 1
     4    1    8 1
     5    5    6 2
     6    5    7 1
     7    5    8 1
     8    5   12 1
     9    9   10 2
    10    9   11 1
    11    9   12 1
    12    9   13 1
    13   11   32 1
    14   13   14 1
    15   14   15 1
    16   14   33 1
    17   14   34 1
    18   15   16 1
    19   15   17 1
    20   15   35 1
    21   16   21 1
    22   17   18 1
    23   17   19 1
    24   17   36 1
    25   18   37 1
    26   19   20 1
    27   19   21 1
    28   19   38 1
    29   20   39 1
    30   21   22 1
    31   21   40 1
    32   22   23 ar
    33   22   31 ar
    34   23   24 ar
    35   23   41 1
    36   24   25 ar
    37   25   26 ar
    38   25   31 ar
    39   26   27 1
    40   26   28 ar
    41   27   42 1
    42   27   43 1
    43   28   29 ar
    44   29   30 ar
    45   29   44 1
    46   30   31 ar
@<TRIPOS>SUBSTRUCTURE
     1 ATP         1 GROUP 0 A     ****
@<TRIPOS>MOLECULE
[[[5-(6-aminopurin-9-yl)-3,4-dihydroxy-tetrahydrofuran-2-yl]methoxy-hydroxy-phosphoryl]oxy-oxido-phosphoryl] phosphate
   44    46     1     0     0
SMALL
USER_CHARGES

@<TRIPOS>ATOM
      1 PG         -3.8582    4.5091    4.8573 P.3       1 ATP         1.4221
      2 O1G        -2.9629    3.3669    4.3888 O.co2     1 ATP        -0.9341
      3 O2G        -4.0480    4.5813    6.3685 O.co2     1 ATP        -0.9341
      4 O3G        -5.1503    4.6568    4.0602 O.co2     1 ATP        -0.9341
      5 PB         -2.4568    6.4533    3.0626 P.3       1 ATP         1.6363
      6 O1B        -3.6056    6.5279    2.0817 O.co2     1 ATP        -0.9021
      7 O2B        -1.5984    7.6660    3.3478 O.co2     1 ATP        -0.9021
      8 O3B        -3.0111    5.8727    4.4846 O.3       1 ATP        -0.7799
      9 PA         -0.5530    5.0212    1.3251 P.3       1 ATP         1.7141
     10 O1A         0.5013    6.0769    1.1589 O.2       1 ATP        -0.8703
     11 O2A        -1.6202    4.9433    0.1117 O.3       1 ATP        -0.8196
     12 O3A        -1.4820    5.2163    2.6355 O.3       1 ATP        -0.7658
     13 O5'         0.0166    3.5128    1.4591 O.3       1 ATP        -0.5841
     14 C5'        -0.8811    2.4285    1.6206 C.3       1 ATP         0.1451
     15 C4'        -0.1994    1.3333    2.4288 C.3       1 ATP         0.0896
     16 O4'        -1.1285    0.2356    2.5840 O.3       1 ATP        -0.3980
     17 C3'         1.0324    0.7610    1.7344 C.3       1 ATP         0.0854
     18 O3'         1.9175    0.2377    2.7247 O.3       1 ATP        -0.5883
     19 C2'         0.4468   -0.3802    0.9263 C.3       1 ATP         0.0574
     20 O2'         1.3993   -1.3703    0.5961 O.3       1 ATP        -0.6005
     21 C1'        -0.6159   -0.9100    1.8769 C.3       1 ATP         0.4284
     22 N9         -1.7127   -1.6108    1.2130 N.pl3     1 ATP        -0.6877
     23 C8         -2.8641   -1.0399    0.7392 C.ar      1 ATP         0.5830
     24 N7         -3.6659   -1.9257    0.1858 N.2       1 ATP        -0.5778
     25 C5         -3.0053   -3.1223    0.3069 C.ar      1 ATP        -0.1986
     26 C6         -3.3321   -4.4178   -0.0813 C.ar      1 ATP         0.7073
     27 N6         -4.5476   -4.6866   -0.7335 N.pl3     1 ATP        -0.9340
     28 N1         -2.4608   -5.4225    0.1773 N.ar      1 ATP        -0.8111
     29 C2         -1.3053   -5.1020    0.8081 C.ar      1 ATP         0.6446
     30 N3         -0.8788   -3.8921    1.2315 N.ar      1 ATP        -0.7095
     31 C4         -1.7870   -2.9477    0.9438 C.ar      1 ATP         0.5640
     32 HOA2       -1.2957    4.7529   -0.7942 H         1 ATP         0.4759
     33 H5'1       -1.7777    2.7838    2.1390 H         1 ATP         0.0806
     34 H5'2       -1.1661    2.0530    0.6323 H         1 ATP         0.0806
     35 H4'         0.0402    1.7079    3.4342 H         1 ATP         0.1213
     36 H3'         1.5907    1.4859    1.1353 H         1 ATP         0.1208
     37 HO3'        2.6839   -0.1150    2.2479 H         1 ATP         0.3965
     38 H2'        -0.0017    0.0018    0.0005 H         1 ATP         0.0768
     39 HO2'        2.0953   -0.9375    0.0709 H         1 ATP         0.4074
     40 H1'        -0.1998   -1.6319    2.6178 H         1 ATP         0.0935
     41 H8         -3.0609    0.0200    0.8250 H         1 ATP         0.1424
     42 HN61       -5.2046   -3.9433   -0.8775 H         1 ATP         0.4144
     43 HN62       -4.7849   -5.6332   -0.9625 H         1 ATP         0.4144
     44 H2         -0.6318   -5.9307    0.9993 H         1 ATP         0.0297
@<TRIPOS>BOND
     1    1    2 2
     2    1    3 1
     3    1    4 1
     4    1    8 1
     5    5    6 2
     6    5    7 1
     7    5    8 1
     8    5   12 1
     9    9   10 2
    10    9   11 1
    11    9   12 1
    12    9   13 1
    13   11   32 1
    14   13   14 1
    15   14   15 1
    16   14   33 1
    17   14   34 1
    18   15   16 1
    19   15   17 1
    20   15   35 1
    21   16   21 1
    22   17   18 1
    23   17   19 1
    24   17   36 1
    25   18   37 1
    26   19   20 1
    27   19   21 1
    28   19   38 1
    29   20   39 1
    30   21   22 1
    31   21   40 1
    32   22   23 ar
    33   22   31 ar
    34   23   24 ar
    35   23   41 1
    36   24   25 ar
    37   25   26 ar
    38   25   31 ar
    39   26   27 1
    40   26   28 ar
    41   27   42 1
    42   27   43 1
    43   28   29 ar
    44   29   30 ar
    45   29   44 1
    46   30   31 ar
@<TRIPOS>SUBSTRUCTURE
     1 ATP         1 GROUP 0 A     ****
@<TRIPOS>MOLECULE
[[[5-(6-aminopurin-9-yl)-3,4-dihydroxy-tetrahydrofuran-2-yl]methoxy-hydroxy-phosphoryl]oxy-oxido-phosphoryl] phosphate
   44    46     1     0     0
SMALL
USER_CHARGES

@<TRIPOS>ATOM
      1 PG         -3.0712    5.6420    6.4194 P.3       1 ATP         1.4221
      2 O1G        -2.3238    6.8652    6.9397 O.co2     1 ATP        -0.9341
      3 O2G        -4.5810    5.8257    6.3109 O.co2     1 ATP        -0.9341
      4 O3G        -2.6495    4.3288    7.0706 O.co2     1 ATP        -0.9341
      5 PB         -1.0800    5.2599    4.2164 P.3       1 ATP         1.6363
      6 O1B        -0.2424    6.4933    4.4711 O.co2     1 ATP        -0.9021
      7 O2B        -0.5888    3.8889    4.6259 O.co2     1 ATP        -0.9021
      8 O3B        -2.5639    5.4851    4.8593 O.3       1 ATP        -0.7799
      9 PA         -0.5530    5.0212    1.3251 P.3       1 ATP         1.7141
     10 O1A         0.5013    6.0769    1.1589 O.2       1 ATP        -0.8703
     11 O2A        -1.6202    4.9433    0.1117 O.3       1 ATP        -0.8196
     12 O3A        -1.4820    5.2163    2.6355 O.3       1 ATP        -0.7658
     13 O5'         0.0166    3.5128    1.4591 O.3       1 ATP        -0.5841
     14 C5'        -0.8811    2.4285    1.6206 C.3       1 ATP         0.1451
     15 C4'        -0.1994    1.3333    2.4288 C.3       1 ATP         0.0896
     16 O4'        -1.1285    0.2356    2.5840 O.3       1 ATP        -0.3980
     17 C3'         1.0324    0.7610    1.7344 C.3       1 ATP         0.0854
     18 O3'         1.9175    0.2377    2.7247 O.3       1 ATP        -0.5883
     19 C2'         0.4468   -0.3802    0.9263 C.3       1 ATP         0.0574
     20 O2'         1.3993   -1.3703    0.5961 O.3       1 ATP        -0.6005
     21 C1'        -0.6159   -0.9100    1.8769 C.3       1 ATP         0.4284
     22 N9         -1.7127   -1.6108    1.2130 N.pl3     1 ATP        -0.6877
     23 C8         -2.8641   -1.0399    0.7392 C.ar      1 ATP         0.5830
     24 N7         -3.6659   -1.9257    0.1858 N.2       1 ATP        -0.5778
     25 C5         -3.0053   -3.1223    0.3069 C.ar      1 ATP        -0.1986
     26 C6         -3.3321   -4.4178   -0.0813 C.ar      1 ATP         0.7073
     27 N6         -4.5476   -4.6866   -0.7335 N.pl3     1 ATP        -0.9340
     28 N1         -2.4608   -5.4225    0.1773 N.ar      1 ATP        -0.8111
     29 C2         -1.3053   -5.1020    0.8081 C.ar      1 ATP         0.6446
     30 N3         -0.8788   -3.8921    1.2315 N.ar      1 ATP        -0.7095
     31 C4         -1.7870   -2.9477    0.9438 C.ar      1 ATP         0.5640
     32 HOA2       -1.2957    4.7529   -0.7942 H         1 ATP         0.4759
     33 H5'1       -1.7777    2.7838    2.1390 H         1 ATP         0.0806
     34 H5'2       -1.1661    2.0530    0.6323 H         1 ATP         0.0806
     35 H4'         0.0402    1.7079    3.4342 H         1 ATP         0.1213
     36 H3'         1.5907    1.4859    1.1353 H         1 ATP         0.1208
     37 HO3'        2.6839   -0.1150    2.2479 H         1 ATP         0.3965
     38 H2'        -0.0017    0.0018    0.0005 H         1 ATP         0.0768
     39 HO2'        2.0953   -0.9375    0.0709 H         1 ATP         0.4074
     40 H1'        -0.1998   -1.6319    2.6178 H         1 ATP         0.0935
     41 H8         -3.0609    0.0200    0.8250 H         1 ATP         0.1424
     42 HN61       -5.2046   -3.9433   -0.8775 H         1 ATP         0.4144
     43 HN62       -4.7849   -5.6332   -0.9625 H         1 ATP         0.4144
     44 H2         -0.6318   -5.9307    0.9993 H         1 ATP         0.0297
@<TRIPOS>BOND
     1    1    2 2
     2    1    3 1
     3    1    4 1
     4    1    8 1
     5    5    6 2
     6    5    7 1
     7    5    8 1
     8    5   12 1
     9    9   10 2
    10    9   11 1
    11    9   12 1
    12    9   13 1
    13   11   32 1
    14   13   14 1
    15   14   15 1
    16   14   33 1
    17   14   34 1
    18   15   16 1
    19   15   17 1
    20   15   35 1
    21   16   21 1
    22   17   18 1
    23   17   19 1
    24   17   36 1
    25   18   37 1
    26   19   20 1
    27   19   21 1
    28   19   38 1
    29   20   39 1
    30   21   22 1
    31   21   40 1
    32   22   23 ar
    33   22   31 ar
    34   23   24 ar
    35   23   41 1
    36   24   25 ar
    37   25   26 ar
    38   25   31 ar
    39   26   27 1
    40   26   28 ar
    41   27   42 1
    42   27   43 1
    43   28   29 ar
    44   29   30 ar
    45   29   44 1
    46   30   31 ar
@<TRIPOS>SUBSTRUCTURE
     1 ATP         1 GROUP 0 A     ****
@<TRIPOS>MOLECULE
[[[5-(6-aminopurin-9-yl)-3,4-dihydroxy-tetrahydrofuran-2-yl]methoxy-hydroxy-phosphoryl]oxy-oxido-phosphoryl] phosphate
   44    46     1     0     0
SMALL
USER_CHARGES

@<TRIPOS>ATOM
      1 PG         -6.1276    5.6951    0.6815 P.3       1 ATP         1.4221
      2 O1G        -6.7347    5.4872   -0.7019 O.co2     1 ATP        -0.9341
      3 O2G        -7.0952    6.2606    1.7153 O.co2     1 ATP        -0.9341
      4 O3G        -4.7630    6.3764    0.6686 O.co2     1 ATP        -0.9341
      5 PB         -4.8458    2.9901    0.6161 P.3       1 ATP         1.6363
      6 O1B        -4.7961    1.8480    1.6065 O.co2     1 ATP        -0.9021
      7 O2B        -5.2382    2.7521   -0.8254 O.co2     1 ATP        -0.9021
      8 O3B        -5.7987    4.1718    1.2175 O.3       1 ATP        -0.7799
      9 PA         -2.5918    4.4091    1.8810 P.3       1 ATP         1.7141
     10 O1A        -3.4540    5.1134    2.8882 O.2       1 ATP        -0.8703
     11 O2A        -1.4938    5.3545    1.1613 O.3       1 ATP        -0.8196
     12 O3A        -3.4123    3.7693    0.6419 O.3       1 ATP        -0.7658
     13 O5'        -1.7333    3.1724    2.4738 O.3       1 ATP        -0.5841
     14 C5'        -0.8811    2.4285    1.6206 C.3       1 ATP         0.1451
     15 C4'        -0.1994    1.3333    2.4288 C.3       1 ATP         0.0896
     16 O4'        -1.1285    0.2356    2.5840 O.3       1 ATP        -0.3980
     17 C3'         1.0324    0.7610    1.7344 C.3       1 ATP         0.0854
     18 O3'         1.9175    0.2377    2.7247 O.3       1 ATP        -0.5883
     19 C2'         0.4468   -0.3802    0.9263 C.3       1 ATP         0.0574
     20 O2'         1.3993   -1.3703    0.5961 O.3       1 ATP        -0.6005
     21 C1'        -0.6159   -0.9100    1.8769 C.3       1 ATP         0.4284
     22 N9         -1.7127   -1.6108    1.2130 N.pl3     1 ATP        -0.6877
     23 C8         -2.8641   -1.0399    0.7392 C.ar      1 ATP         0.5830
     24 N7         -3.6659   -1.9257    0.1858 N.2       1 ATP        -0.5778
     25 C5         -3.0053   -3.1223    0.3069 C.ar      1 ATP        -0.1986
     26 C6         -3.3321   -4.4178   -0.0813 C.ar      1 ATP         0.7073
     27 N6         -4.5476   -4.6866   -0.7335 N.pl3     1 ATP        -0.9340
     28 N1         -2.4608   -5.4225    0.1773 N.ar      1 ATP        -0.8111
     29 C2         -1.3053   -5.1020    0.8081 C.ar      1 ATP         0.6446
     30 N3         -0.8788   -3.8921    1.2315 N.ar      1 ATP        -0.7095
     31 C4         -1.7870   -2.9477    0.9438 C.ar      1 ATP         0.5640
     32 HOA2       -0.8194    5.8039    1.7138 H         1 ATP         0.4759
     33 H5'1       -1.4792    1.9919    0.8140 H         1 ATP         0.0806
     34 H5'2       -0.1359    3.1032    1.1865 H         1 ATP         0.0806
     35 H4'         0.0402    1.7079    3.4342 H         1 ATP         0.1213
     36 H3'         1.5907    1.4859    1.1353 H         1 ATP         0.1208
     37 HO3'        2.6839   -0.1150    2.2479 H         1 ATP         0.3965
     38 H2'        -0.0017    0.0018    0.0005 H         1 ATP         0.0768
     39 HO2'        2.0953   -0.9375    0.0709 H         1 ATP         0.4074
     40 H1'        -0.1998   -1.6319    2.6178 H         1 ATP         0.0935
     41 H8         -3.0609    0.0200    0.8250 H         1 ATP         0.1424
     42 HN61       -5.2046   -3.9433   -0.8775 H         1 ATP         0.4144
     43 HN62       -4.7849   -5.6332   -0.9625 H         1 ATP         0.4144
     44 H2         -0.6318   -5.9307    0.9993 H         1 ATP         0.0297
@<TRIPOS>BOND
     1    1    2 2
     2    1    3 1
     3    1    4 1
     4    1    8 1
     5    5    6 2
     6    5    7 1
     7    5    8 1
     8    5   12 1
     9    9   10 2
    10    9   11 1
    11    9   12 1
    12    9   13 1
    13   11   32 1
    14   13   14 1
    15   14   15 1
    16   14   33 1
    17   14   34 1
    18   15   16 1
    19   15   17 1
    20   15   35 1
    21   16   21 1
    22   17   18 1
    23   17   19 1
    24   17   36 1
    25   18   37 1
    26   19   20 1
    27   19   21 1
    28   19   38 1
    29   20   39 1
    30   21   22 1
    31   21   40 1
    32   22   23 ar
    33   22   31 ar
    34   23   24 ar
    35   23   41 1
    36   24   25 ar
    37   25   26 ar
    38   25   31 ar
    39   26   27 1
    40   26   28 ar
    41   27   42 1
    42   27   43 1
    43   28   29 ar
    44   29   30 ar
    45   29   44 1
    46   30   31 ar
@<TRIPOS>SUBSTRUCTURE
     1 ATP         1 GROUP 0 A     ****
@<TRIPOS>MOLECULE
[[[5-(6-aminopurin-9-yl)-3,4-dihydroxy-tetrahydrofuran-2-yl]methoxy-hydroxy-phosphoryl]oxy-oxido-phosphoryl] phosphate
   44    46     1     0     0
SMALL
USER_CHARGES

@<TRIPOS>ATOM
      1 PG         -3.1787    3.5579   -2.8388 P.3       1 ATP         1.4221
      2 O1G        -4.5312    4.1982   -3.1323 O.co2     1 ATP        -0.9341
      3 O2G        -2.4439    3.0447   -4.0724 O.co2     1 ATP        -0.9341
      4 O3G        -3.1924    2.5777   -1.6702 O.co2     1 ATP        -0.9341
      5 PB         -2.4145    5.8102   -1.0202 P.3       1 ATP         1.6363
      6 O1B        -1.6457    7.0832   -1.2964 O.co2     1 ATP        -0.9021
      7 O2B        -3.8781    5.8533   -0.6399 O.co2     1 ATP        -0.9021
      8 O3B        -2.2460    4.8025   -2.2939 O.3       1 ATP        -0.7799
      9 PA         -0.0721    4.4467    0.1409 P.3       1 ATP         1.7141
     10 O1A         0.9346    5.5594    0.0921 O.2       1 ATP        -0.8703
     11 O2A         0.0170    3.4080   -1.0963 O.3       1 ATP        -0.8196
     12 O3A        -1.6106    4.9463    0.1069 O.3       1 ATP        -0.7658
     13 O5'         0.0166    3.5128    1.4591 O.3       1 ATP        -0.5841
     14 C5'        -0.8811    2.4285    1.6206 C.3       1 ATP         0.1451
     15 C4'        -0.1994    1.3333    2.4288 C.3       1 ATP         0.0896
     16 O4'        -1.1285    0.2356    2.5840 O.3       1 ATP        -0.3980
     17 C3'         1.0324    0.7610    1.7344 C.3       1 ATP         0.0854
     18 O3'         1.9175    0.2377    2.7247 O.3       1 ATP        -0.5883
     19 C2'         0.4468   -0.3802    0.9263 C.3       1 ATP         0.0574
     20 O2'         1.3993   -1.3703    0.5961 O.3       1 ATP        -0.6005
     21 C1'        -0.6159   -0.9100    1.8769 C.3       1 ATP         0.4284
     22 N9         -1.7127   -1.6108    1.2130 N.pl3     1 ATP        -0.6877
     23 C8         -2.8641   -1.0399    0.7392 C.ar      1 ATP         0.5830
     24 N7         -3.6659   -1.9257    0.1858 N.2       1 ATP        -0.5778
     25 C5         -3.0053   -3.1223    0.3069 C.ar      1 ATP        -0.1986
     26 C6         -3.3321   -4.4178   -0.0813 C.ar      1 ATP         0.7073
     27 N6         -4.5476   -4.6866   -0.7335 N.pl3     1 ATP        -0.9340
     28 N1         -2.4608   -5.4225    0.1773 N.ar      1 ATP        -0.8111
     29 C2         -1.3053   -5.1020    0.8081 C.ar      1 ATP         0.6446
     30 N3         -0.8788   -3.8921    1.2315 N.ar      1 ATP        -0.7095
     31 C4         -1.7870   -2.9477    0.9438 C.ar      1 ATP         0.5640
     32 HOA2        0.8500    2.9102   -1.2390 H         1 ATP         0.4759
     33 H5'1       -1.7777    2.7838    2.1390 H         1 ATP         0.0806
     34 H5'2       -1.1661    2.0530    0.6323 H         1 ATP         0.0806
     35 H4'         0.0402    1.7079    3.4342 H         1 ATP         0.1213
     36 H3'         1.5907    1.4859    1.1353 H         1 ATP         0.1208
     37 HO3'        2.6839   -0.1150    2.2479 H         1 ATP         0.3965
     38 H2'        -0.0017    0.0018    0.0005 H         1 ATP         0.0768
     39 HO2'        2.0953   -0.9375    0.0709 H         1 ATP         0.4074
     40 H1'        -0.1998   -1.6319    2.6178 H         1 ATP         0.0935
     41 H8         -3.0609    0.0200    0.8250 H         1 ATP         0.1424
     42 HN61       -5.2046   -3.9433   -0.8775 H         1 ATP         0.4144
     43 HN62       -4.7849   -5.6332   -0.9625 H         1 ATP         0.4144
     44 H2         -0.6318   -5.9307    0.9993 H         1 ATP         0.0297
@<TRIPOS>BOND
     1    1    2 2
     2    1    3 1
     3    1    4 1
     4    1    8 1
     5    5    6 2
     6    5    7 1
     7    5    8 1
     8    5   12 1
     9    9   10 2
    10    9   11 1
    11    9   12 1
    12    9   13 1
    13   11   32 1
    14   13   14 1
    15   14   15 1
    16   14   33 1
    17   14   34 1
    18   15   16 1
    19   15   17 1
    20   15   35 1
    21   16   21 1
    22   17   18 1
    23   17   19 1
    24   17   36 1
    25   18   37 1
    26   19   20 1
    27   19   21 1
    28   19   38 1
    29   20   39 1
    30   21   22 1
    31   21   40 1
    32   22   23 ar
    33   22   31 ar
    34   23   24 ar
    35   23   41 1
    36   24   25 ar
    37   25   26 ar
    38   25   31 ar
    39   26   27 1
    40   26   28 ar
    41   27   42 1
    42   27   43 1
    43   28   29 ar
    44   29   30 ar
    45   29   44 1
    46   30   31 ar
@<TRIPOS>SUBSTRUCTURE
     1 ATP         1 GROUP 0 A     ****
@<TRIPOS>MOLECULE
[[[5-(6-aminopurin-9-yl)-3,4-dihydroxy-tetrahydrofuran-2-yl]methoxy-hydroxy-phosphoryl]oxy-oxido-phosphoryl] phosphate
   44    46     1     0     0
SMALL
USER_CHARGES

@<TRIPOS>ATOM
      1 PG         -3.9947    8.8048    1.8895 P.3       1 ATP         1.4221
      2 O1G        -4.0485    9.3324    0.4596 O.co2     1 ATP        -0.9341
      3 O2G        -5.3593    8.5184    2.5067 O.co2     1 ATP        -0.9341
      4 O3G        -3.0475    9.5750    2.8040 O.co2     1 ATP        -0.9341
      5 PB         -1.8289    6.8634    1.1793 P.3       1 ATP         1.6363
      6 O1B        -1.7778    7.1368   -0.3073 O.co2     1 ATP        -0.9021
      7 O2B        -0.7628    7.4048    2.1061 O.co2     1 ATP        -0.9021
      8 O3B        -3.2871    7.3228    1.7528 O.3       1 ATP        -0.7799
      9 PA         -2.1747    4.4070    2.7734 P.3       1 ATP         1.7141
     10 O1A        -3.4489    4.7361    3.4959 O.2       1 ATP        -0.8703
     11 O2A        -0.8289    4.6933    3.6245 O.3       1 ATP        -0.8196
     12 O3A        -1.9501    5.2528    1.4125 O.3       1 ATP        -0.7658
     13 O5'        -2.0394    2.8623    2.3117 O.3       1 ATP        -0.5841
     14 C5'        -0.8811    2.4285    1.6206 C.3       1 ATP         0.1451
     15 C4'        -0.1994    1.3333    2.4288 C.3       1 ATP         0.0896
     16 O4'        -1.1285    0.2356    2.5840 O.3       1 ATP        -0.3980
     17 C3'         1.0324    0.7610    1.7344 C.3       1 ATP         0.0854
     18 O3'         1.9175    0.2377    2.7247 O.3       1 ATP        -0.5883
     19 C2'         0.4468   -0.3802    0.9263 C.3       1 ATP         0.0574
     20 O2'         1.3993   -1.3703    0.5961 O.3       1 ATP        -0.6005
     21 C1'        -0.6159   -0.9100    1.8769 C.3       1 ATP         0.4284
     22 N9         -1.7127   -1.6108    1.2130 N.pl3     1 ATP        -0.6877
     23 C8         -1.7712   -2.9546    0.9544 C.ar      1 ATP         0.5830
     24 N7         -2.8883   -3.2948    0.3462 N.2       1 ATP        -0.5778
     25 C5         -3.5834   -2.1202    0.2043 C.ar      1 ATP        -0.1986
     26 C6         -4.8225   -1.8251   -0.3554 C.ar      1 ATP         0.7073
     27 N6         -5.6154   -2.8394   -0.9189 N.pl3     1 ATP        -0.9340
     28 N1         -5.2589   -0.5425   -0.3507 N.ar      1 ATP        -0.8111
     29 C2         -4.4510    0.3913    0.2069 C.ar      1 ATP         0.6446
     30 N3         -3.2368    0.2296    0.7767 N.ar      1 ATP        -0.7095
     31 C4         -2.8684   -1.0596    0.7376 C.ar      1 ATP         0.5640
     32 HOA2       -0.6967    4.2235    4.4754 H         1 ATP         0.4759
     33 H5'1       -1.1757    2.0497    0.6364 H         1 ATP         0.0806
     34 H5'2       -0.2069    3.2809    1.4872 H         1 ATP         0.0806
     35 H4'         0.0402    1.7079    3.4342 H         1 ATP         0.1213
     36 H3'         1.5907    1.4859    1.1353 H         1 ATP         0.1208
     37 HO3'        2.6839   -0.1150    2.2479 H         1 ATP         0.3965
     38 H2'        -0.0017    0.0018    0.0005 H         1 ATP         0.0768
     39 HO2'        2.0953   -0.9375    0.0709 H         1 ATP         0.4074
     40 H1'        -0.1998   -1.6319    2.6178 H         1 ATP         0.0935
     41 H8         -0.9745   -3.6312    1.2318 H         1 ATP         0.1424
     42 HN61       -5.2619   -3.7766   -0.9586 H         1 ATP         0.4144
     43 HN62       -6.4834   -2.5990   -1.3590 H         1 ATP         0.4144
     44 H2         -4.8317    1.4071    0.1930 H         1 ATP         0.0297
@<TRIPOS>BOND
     1    1    2 2
     2    1    3 1
     3    1    4 1
     4    1    8 1
     5    5    6 2
     6    5    7 1
     7    5    8 1
     8    5   12 1
     9    9   10 2
    10    9   11 1
    11    9   12 1
    12    9   13 1
    13   11   32 1
    14   13   14 1
    15   14   15 1
    16   14   33 1
    17   14   34 1
    18   15   16 1
    19   15   17 1
    20   15   35 1
    21   16   21 1
    22   17   18 1
    23   17   19 1
    24   17   36 1
    25   18   37 1
    26   19   20 1
    27   19   21 1
    28   19   38 1
    29   20   39 1
    30   21   22 1
    31   21   40 1
    32   22   23 ar
    33   22   31 ar
    34   23   24 ar
    35   23   41 1
    36   24   25 ar
    37   25   26 ar
    38   25   31 ar
    39   26   27 1
    40   26   28 ar
    41   27   42 1
    42   27   43 1
    43   28   29 ar
    44   29   30 ar
    45   29   44 1
    46   30   31 ar
@<TRIPOS>SUBSTRUCTURE
     1 ATP         1 GROUP 0 A     ****
@<TRIPOS>MOLECULE
[[[5-(6-aminopurin-9-yl)-3,4-dihydroxy-tetrahydrofuran-2-yl]methoxy-hydroxy-phosphoryl]oxy-oxido-phosphoryl] phosphate
   44    46     1     0     0
SMALL
USER_CHARGES

@<TRIPOS>ATOM
      1 PG         -3.8582    4.5091    4.8573 P.3       1 ATP         1.4221
      2 O1G        -2.9629    3.3669    4.3888 O.co2     1 ATP        -0.9341
      3 O2G        -4.0480    4.5813    6.3685 O.co2     1 ATP        -0.9341
      4 O3G        -5.1503    4.6568    4.0602 O.co2     1 ATP        -0.9341
      5 PB         -2.4568    6.4533    3.0626 P.3       1 ATP         1.6363
      6 O1B        -3.6056    6.5279    2.0817 O.co2     1 ATP        -0.9021
      7 O2B        -1.5984    7.6660    3.3478 O.co2     1 ATP        -0.9021
      8 O3B        -3.0111    5.8727    4.4846 O.3       1 ATP        -0.7799
      9 PA         -0.5530    5.0212    1.3251 P.3       1 ATP         1.7141
     10 O1A         0.5013    6.0769    1.1589 O.2       1 ATP        -0.8703
     11 O2A        -1.6202    4.9433    0.1117 O.3       1 ATP        -0.8196
     12 O3A        -1.4820    5.2163    2.6355 O.3       1 ATP        -0.7658
     13 O5'         0.0166    3.5128    1.4591 O.3       1 ATP        -0.5841
     14 C5'        -0.8811    2.4285    1.6206 C.3       1 ATP         0.1451
     15 C4'        -0.1994    1.3333    2.4288 C.3       1 ATP         0.0896
     16 O4'        -1.1285    0.2356    2.5840 O.3       1 ATP        -0.3980
     17 C3'         1.0324    0.7610    1.7344 C.3       1 ATP         0.0854
     18 O3'         1.9175    0.2377    2.7247 O.3       1 ATP        -0.5883
     19 C2'         0.4468   -0.3802    0.9263 C.3       1 ATP         0.0574
     20 O2'         1.3993   -1.3703    0.5961 O.3       1 ATP        -0.6005
     21 C1'        -0.6159   -0.9100    1.8769 C.3       1 ATP         0.4284
     22 N9         -1.7127   -1.6108    1.2130 N.pl3     1 ATP        -0.6877
     23 C8         -1.7712   -2.9546    0.9544 C.ar      1 ATP         0.5830
     24 N7         -2.8883   -3.2948    0.3462 N.2       1 ATP        -0.5778
     25 C5         -3.5834   -2.1202    0.2043 C.ar      1 ATP        -0.1986
     26 C6         -4.8225   -1.8251   -0.3554 C.ar      1 ATP         0.7073
     27 N6         -5.6154   -2.8394   -0.9189 N.pl3     1 ATP        -0.9340
     28 N1         -5.2589   -0.5425   -0.3507 N.ar      1 ATP        -0.8111
     29 C2         -4.4510    0.3913    0.2069 C.ar      1 ATP         0.6446
     30 N3         -3.2368    0.2296    0.7767 N.ar      1 ATP        -0.7095
     31 C4         -2.8684   -1.0596    0.7376 C.ar      1 ATP         0.5640
     32 HOA2       -1.2957    4.7529   -0.7942 H         1 ATP         0.4759
     33 H5'1       -1.7777    2.7838    2.1390 H         1 ATP         0.0806
     34 H5'2       -1.1661    2.0530    0.6323 H         1 ATP         0.0806
     35 H4'         0.0402    1.7079    3.4342 H         1 ATP         0.1213
     36 H3'         1.5907    1.4859    1.1353 H         1 ATP         0.1208
     37 HO3'        2.6839   -0.1150    2.2479 H         1 ATP         0.3965
     38 H2'        -0.0017    0.0018    0.0005 H         1 ATP         0.0768
     39 HO2'        2.0953   -0.9375    0.0709 H         1 ATP         0.4074
     40 H1'        -0.1998   -1.6319    2.6178 H         1 ATP         0.0935
     41 H8         -0.9745   -3.6312    1.2318 H         1 ATP         0.1424
     42 HN61       -5.2619   -3.7766   -0.9586 H         1 ATP         0.4144
     43 HN62       -6.4834   -2.5990   -1.3590 H         1 ATP         0.4144
     44 H2         -4.8317    1.4071    0.1930 H         1 ATP         0.0297
@<TRIPOS>BOND
     1    1    2 2
     2    1    3 1
     3    1    4 1
     4    1    8 1
     5    5    6 2
     6    5    7 1
     7    5    8 1
     8    5   12 1
     9    9   10 2
    10    9   11 1
    11    9   12 1
    12    9   13 1
    13   11   32 1
    14   13   14 1
    15   14   15 1
    16   14   33 1
    17   14   34 1
    18   15   16 1
    19   15   17 1
    20   15   35 1
    21   16   21 1
    22   17   18 1
    23   17   19 1
    24   17   36 1
    25   18   37 1
    26   19   20 1
    27   19   21 1
    28   19   38 1
    29   20   39 1
    30   21   22 1
    31   21   40 1
    32   22   23 ar
    33   22   31 ar
    34   23   24 ar
    35   23   41 1
    36   24   25 ar
    37   25   26 ar
    38   25   31 ar
    39   26   27 1
    40   26   28 ar
    41   27   42 1
    42   27   43 1
    43   28   29 ar
    44   29   30 ar
    45   29   44 1
    46   30   31 ar
@<TRIPOS>SUBSTRUCTURE
     1 ATP         1 GROUP 0 A     ****
@<TRIPOS>MOLECULE
[[[5-(6-aminopurin-9-yl)-3,4-dihydroxy-tetrahydrofuran-2-yl]methoxy-hydroxy-phosphoryl]oxy-oxido-phosphoryl] phosphate
   44    46     1     0     0
SMALL
USER_CHARGES

@<TRIPOS>ATOM
      1 PG          0.2853    8.5634    2.4459 P.3       1 ATP         1.4221
      2 O1G        -0.7644    9.4656    3.0861 O.co2     1 ATP        -0.9341
      3 O2G         1.4071    8.1368    3.3863 O.co2     1 ATP        -0.9341
      4 O3G         0.7666    9.0383    1.0786 O.co2     1 ATP        -0.9341
      5 PB         -1.8289    6.8634    1.1793 P.3       1 ATP         1.6363
      6 O1B        -3.0372    7.5355    1.7924 O.co2     1 ATP        -0.9021
      7 O2B        -1.4493    7.1134   -0.2636 O.co2     1 ATP        -0.9021
      8 O3B        -0.5236    7.1669    2.1121 O.3       1 ATP        -0.7799
      9 PA         -2.1747    4.4070    2.7734 P.3       1 ATP         1.7141
     10 O1A        -3.4489    4.7361    3.4959 O.2       1 ATP        -0.8703
     11 O2A        -0.8289    4.6933    3.6245 O.3       1 ATP        -0.8196
     12 O3A        -1.9501    5.2528    1.4125 O.3       1 ATP        -0.7658
     13 O5'        -2.0394    2.8623    2.3117 O.3       1 ATP        -0.5841
     14 C5'        -0.8811    2.4285    1.6206 C.3       1 ATP         0.1451
     15 C4'        -0.1994    1.3333    2.4288 C.3       1 ATP         0.0896
     16 O4'        -1.1285    0.2356    2.5840 O.3       1 ATP        -0.3980
     17 C3'         1.0324    0.7610    1.7344 C.3       1 ATP         0.0854
     18 O3'         1.9175    0.2377    2.7247 O.3       1 ATP        -0.5883
     19 C2'         0.4468   -0.3802    0.9263 C.3       1 ATP         0.0574
     20 O2'         1.3993   -1.3703    0.5961 O.3       1 ATP        -0.6005
     21 C1'        -0.6159   -0.9100    1.8769 C.3       1 ATP         0.4284
     22 N9         -1.7127   -1.6108    1.2130 N.pl3     1 ATP        -0.6877
     23 C8         -1.7712   -2.9546    0.9544 C.ar      1 ATP         0.5830
     24 N7         -2.8883   -3.2948    0.3462 N.2       1 ATP        -0.5778
     25 C5         -3.5834   -2.1202    0.2043 C.ar      1 ATP        -0.1986
     26 C6         -4.8225   -1.8251   -0.3554 C.ar      1 ATP         0.7073
     27 N6         -5.6154   -2.8394   -0.9189 N.pl3     1 ATP        -0.9340
     28 N1         -5.2589   -0.5425   -0.3507 N.ar      1 ATP        -0.8111
     29 C2         -4.4510    0.3913    0.2069 C.ar      1 ATP         0.6446
     30 N3         -3.2368    0.2296    0.7767 N.ar      1 ATP        -0.7095
     31 C4         -2.8684   -1.0596    0.7376 C.ar      1 ATP         0.5640
     32 HOA2       -0.6967    4.2235    4.4754 H         1 ATP         0.4759
     33 H5'1       -1.1757    2.0497    0.6364 H         1 ATP         0.0806
     34 H5'2       -0.2069    3.2809    1.4872 H         1 ATP         0.0806
     35 H4'         0.0402    1.7079    3.4342 H         1 ATP         0.1213
     36 H3'         1.5907    1.4859    1.1353 H         1 ATP         0.1208
     37 HO3'        2.6839   -0.1150    2.2479 H         1 ATP         0.3965
     38 H2'        -0.0017    0.0018    0.0005 H         1 ATP         0.0768
     39 HO2'        2.0953   -0.9375    0.0709 H         1 ATP         0.4074
     40 H1'        -0.1998   -1.6319    2.6178 H         1 ATP         0.0935
     41 H8         -0.9745   -3.6312    1.2318 H         1 ATP         0.1424
     42 HN61       -5.2619   -3.7766   -0.9586 H         1 ATP         0.4144
     43 HN62       -6.4834   -2.5990   -1.3590 H         1 ATP         0.4144
     44 H2         -4.8317    1.4071    0.1930 H         1 ATP         0.0297
@<TRIPOS>BOND
     1    1    2 2
     2    1    3 1
     3    1    4 1
     4    1    8 1
     5    5    6 2
     6    5    7 1
     7    5    8 1
     8    5   12 1
     9    9   10 2
    10    9   11 1
    11    9   12 1
    12    9   13 1
    13   11   32 1
    14   13   14 1
    15   14   15 1
    16   14   33 1
    17   14   34 1
    18   15   16 1
    19   15   17 1
    20   15   35 1
    21   16   21 1
    22   17   18 1
    23   17   19 1
    24   17   36 1
    25   18   37 1
    26   19   20 1
    27   19   21 1
    28   19   38 1
    29   20   39 1
    30   21   22 1
    31   21   40 1
    32   22   23 ar
    33   22   31 ar
    34   23   24 ar
    35   23   41 1
    36   24   25 ar
    37   25   26 ar
    38   25   31 ar
    39   26   27 1
    40   26   28 ar
    41   27   42 1
    42   27   43 1
    43   28   29 ar
    44   29   30 ar
    45   29   44 1
    46   30   31 ar
@<TRIPOS>SUBSTRUCTURE
     1 ATP         1 GROUP 0 A     ****
@<TRIPOS>MOLECULE
[[[5-(6-aminopurin-9-yl)-3,4-dihydroxy-tetrahydrofuran-2-yl]methoxy-hydroxy-phosphoryl]oxy-oxido-phosphoryl] phosphate
   44    46     1     0     0
SMALL
USER_CHARGES

@<TRIPOS>ATOM
      1 PG         -3.2641    3.2952   -1.9328 P.3       1 ATP         1.4221
      2 O1G        -3.1155    4.2775   -3.0897 O.co2     1 ATP        -0.9341
      3 O2G        -2.5357    1.9708   -2.1337 O.co2     1 ATP        -0.9341
      4 O3G        -4.6925    3.1477   -1.4185 O.co2     1 ATP        -0.9341
      5 PB         -2.6985    5.4446    0.0732 P.3       1 ATP         1.6363
      6 O1B        -2.3927    6.5646   -0.8962 O.co2     1 ATP        -0.9021
      7 O2B        -4.0218    5.3895    0.8044 O.co2     1 ATP        -0.9021
      8 O3B        -2.4702    4.0143   -0.6804 O.3       1 ATP        -0.7799
      9 PA         -1.4913    4.7595    2.6747 P.3       1 ATP         1.7141
     10 O1A        -2.4626    5.4291    3.6031 O.2       1 ATP        -0.8703
     11 O2A         0.0577    4.8777    3.1266 O.3       1 ATP        -0.8196
     12 O3A        -1.4947    5.3584    1.1716 O.3       1 ATP        -0.7658
     13 O5'        -1.7333    3.1724    2.4738 O.3       1 ATP        -0.5841
     14 C5'        -0.8811    2.4285    1.6206 C.3       1 ATP         0.1451
     15 C4'        -0.1994    1.3333    2.4288 C.3       1 ATP         0.0896
     16 O4'        -1.1285    0.2356    2.5840 O.3       1 ATP        -0.3980
     17 C3'         1.0324    0.7610    1.7344 C.3       1 ATP         0.0854
     18 O3'         1.9175    0.2377    2.7247 O.3       1 ATP        -0.5883
     19 C2'         0.4468   -0.3802    0.9263 C.3       1 ATP         0.0574
     20 O2'         1.3993   -1.3703    0.5961 O.3       1 ATP        -0.6005
     21 C1'        -0.6159   -0.9100    1.8769 C.3       1 ATP         0.4284
     22 N9         -1.7127   -1.6108    1.2130 N.pl3     1 ATP        -0.6877
     23 C8         -2.8641   -1.0399    0.7392 C.ar      1 ATP         0.5830
     24 N7         -3.6659   -1.9257    0.1858 N.2       1 ATP        -0.5778
     25 C5         -3.0053   -3.1223    0.3069 C.ar      1 ATP        -0.1986
     26 C6         -3.3321   -4.4178   -0.0813 C.ar      1 ATP         0.7073
     27 N6         -4.5476   -4.6866   -0.7335 N.pl3     1 ATP        -0.9340
     28 N1         -2.4608   -5.4225    0.1773 N.ar      1 ATP        -0.8111
     29 C2         -1.3053   -5.1020    0.8081 C.ar      1 ATP         0.6446
     30 N3         -0.8788   -3.8921    1.2315 N.ar      1 ATP        -0.7095
     31 C4         -1.7870   -2.9477    0.9438 C.ar      1 ATP         0.5640
     32 HOA2        0.3289    4.5057    3.9927 H         1 ATP         0.4759
     33 H5'1       -1.4792    1.9919    0.8140 H         1 ATP         0.0806
     34 H5'2       -0.1359    3.1032    1.1865 H         1 ATP         0.0806
     35 H4'         0.0402    1.7079    3.4342 H         1 ATP         0.1213
     36 H3'         1.5907    1.4859    1.1353 H         1 ATP         0.1208
     37 HO3'        2.1521    0.9800    3.3017 H         1 ATP         0.3965
     38 H2'        -0.0017    0.0018    0.0005 H         1 ATP         0.0768
     39 HO2'        0.9369   -2.0558    0.0825 H         1 ATP         0.4074
     40 H1'        -0.1998   -1.6319    2.6178 H         1 ATP         0.0935
     41 H8         -3.0609    0.0200    0.8250 H         1 ATP         0.1424
     42 HN61       -5.2046   -3.9433   -0.8775 H         1 ATP         0.4144
     43 HN62       -4.7849   -5.6332   -0.9625 H         1 ATP         0.4144
     44 H2         -0.6318   -5.9307    0.9993 H         1 ATP         0.0297
@<TRIPOS>BOND
     1    1    2 2
     2    1    3 1
     3    1    4 1
     4    1    8 1
     5    5    6 2
     6    5    7 1
     7    5    8 1
     8    5   12 1
     9    9   10 2
    10    9   11 1
    11    9   12 1
    12    9   13 1
    13   11   32 1
    14   13   14 1
    15   14   15 1
    16   14   33 1
    17   14   34 1
    18   15   16 1
    19   15   17 1
    20   15   35 1
    21   16   21 1
    22   17   18 1
    23   17   19 1
    24   17   36 1
    25   18   37 1
    26   19   20 1
    27   19   21 1
    28   19   38 1
    29   20   39 1
    30   21   22 1
    31   21   40 1
    32   22   23 ar
    33   22   31 ar
    34   23   24 ar
    35   23   41 1
    36   24   25 ar
    37   25   26 ar
    38   25   31 ar
    39   26   27 1
    40   26   28 ar
    41   27   42 1
    42   27   43 1
    43   28   29 ar
    44   29   30 ar
    45   29   44 1
    46   30   31 ar
@<TRIPOS>SUBSTRUCTURE
     1 ATP         1 GROUP 0 A     ****
@<TRIPOS>MOLECULE
[[[5-(6-aminopurin-9-yl)-3,4-dihydroxy-tetrahydrofuran-2-yl]methoxy-hydroxy-phosphoryl]oxy-oxido-phosphoryl] phosphate
   44    46     1     0     0
SMALL
USER_CHARGES

@<TRIPOS>ATOM
      1 PG         -3.9467    7.1272    4.4846 P.3       1 ATP         1.4221
      2 O1G        -3.2908    8.4962    4.6302 O.co2     1 ATP        -0.9341
      3 O2G        -4.9682    7.0352    3.3563 O.co2     1 ATP        -0.9341
      4 O3G        -4.4173    6.5172    5.8010 O.co2     1 ATP        -0.9341
      5 PB         -1.3019    5.7436    4.7181 P.3       1 ATP         1.6363
      6 O1B        -0.4225    6.9733    4.7661 O.co2     1 ATP        -0.9021
      7 O2B        -1.6000    4.9519    5.9723 O.co2     1 ATP        -0.9021
      8 O3B        -2.7204    6.1340    4.0099 O.3       1 ATP        -0.7799
      9 PA         -0.3734    4.9769    2.0265 P.3       1 ATP         1.7141
     10 O1A         0.6631    6.0371    1.7908 O.2       1 ATP        -0.8703
     11 O2A        -1.8171    5.2934    1.3684 O.3       1 ATP        -0.8196
     12 O3A        -0.7154    4.7234    3.5875 O.3       1 ATP        -0.7658
     13 O5'         0.0166    3.5128    1.4591 O.3       1 ATP        -0.5841
     14 C5'        -0.8811    2.4285    1.6206 C.3       1 ATP         0.1451
     15 C4'        -0.1994    1.3333    2.4288 C.3       1 ATP         0.0896
     16 O4'        -1.1285    0.2356    2.5840 O.3       1 ATP        -0.3980
     17 C3'         1.0324    0.7610    1.7344 C.3       1 ATP         0.0854
     18 O3'         1.9175    0.2377    2.7247 O.3       1 ATP        -0.5883
     19 C2'         0.4468   -0.3802    0.9263 C.3       1 ATP         0.0574
     20 O2'         1.3993   -1.3703    0.5961 O.3       1 ATP        -0.6005
     21 C1'        -0.6159   -0.9100    1.8769 C.3       1 ATP         0.4284
     22 N9         -1.7127   -1.6108    1.2130 N.pl3     1 ATP        -0.6877
     23 C8         -2.8641   -1.0399    0.7392 C.ar      1 ATP         0.5830
     24 N7         -3.6659   -1.9257    0.1858 N.2       1 ATP        -0.5778
     25 C5         -3.0053   -3.1223    0.3069 C.ar      1 ATP        -0.1986
     26 C6         -3.3321   -4.4178   -0.0813 C.ar      1 ATP         0.7073
     27 N6         -4.5476   -4.6866   -0.7335 N.pl3     1 ATP        -0.9340
     28 N1         -2.4608   -5.4225    0.1773 N.ar      1 ATP        -0.8111
     29 C2         -1.3053   -5.1020    0.8081 C.ar      1 ATP         0.6446
     30 N3         -0.8788   -3.8921    1.2315 N.ar      1 ATP        -0.7095
     31 C4         -1.7870   -2.9477    0.9438 C.ar      1 ATP         0.5640
     32 HOA2       -2.2987    6.1013    1.6470 H         1 ATP         0.4759
     33 H5'1       -1.7777    2.7838    2.1390 H         1 ATP         0.0806
     34 H5'2       -1.1661    2.0530    0.6323 H         1 ATP         0.0806
     35 H4'         0.0402    1.7079    3.4342 H         1 ATP         0.1213
     36 H3'         1.5907    1.4859    1.1353 H         1 ATP         0.1208
     37 HO3'        2.6839   -0.1150    2.2479 H         1 ATP         0.3965
     38 H2'        -0.0017    0.0018    0.0005 H         1 ATP         0.0768
     39 HO2'        2.0953   -0.9375    0.0709 H         1 ATP         0.4074
     40 H1'        -0.1998   -1.6319    2.6178 H         1 ATP         0.0935
     41 H8         -3.0609    0.0200    0.8250 H         1 ATP         0.1424
     42 HN61       -5.2046   -3.9433   -0.8775 H         1 ATP         0.4144
     43 HN62       -4.7849   -5.6332   -0.9625 H         1 ATP         0.4144
     44 H2         -0.6318   -5.9307    0.9993 H         1 ATP         0.0297
@<TRIPOS>BOND
     1    1    2 2
     2    1    3 1
     3    1    4 1
     4    1    8 1
     5    5    6 2
     6    5    7 1
     7    5    8 1
     8    5   12 1
     9    9   10 2
    10    9   11 1
    11    9   12 1
    12    9   13 1
    13   11   32 1
    14   13   14 1
    15   14   15 1
    16   14   33 1
    17   14   34 1
    18   15   16 1
    19   15   17 1
    20   15   35 1
    21   16   21 1
    22   17   18 1
    23   17   19 1
    24   17   36 1
    25   18   37 1
    26   19   20 1
    27   19   21 1
    28   19   38 1
    29   20   39 1
    30   21   22 1
    31   21   40 1
    32   22   23 ar
    33   22   31 ar
    34   23   24 ar
    35   23   41 1
    36   24   25 ar
    37   25   26 ar
    38   25   31 ar
    39   26   27 1
    40   26   28 ar
    41   27   42 1
    42   27   43 1
    43   28   29 ar
    44   29   30 ar
    45   29   44 1
    46   30   31 ar
@<TRIPOS>SUBSTRUCTURE
     1 ATP         1 GROUP 0 A     ****
@<TRIPOS>MOLECULE
[[[5-(6-aminopurin-9-yl)-3,4-dihydroxy-tetrahydrofuran-2-yl]methoxy-hydroxy-phosphoryl]oxy-oxido-phosphoryl] phosphate
   44    46     1     0     0
SMALL
USER_CHARGES

@<TRIPOS>ATOM
      1 PG         -3.0712    5.6420    6.4194 P.3       1 ATP         1.4221
      2 O1G        -2.3238    6.8652    6.9397 O.co2     1 ATP        -0.9341
      3 O2G        -4.5810    5.8257    6.3109 O.co2     1 ATP        -0.9341
      4 O3G        -2.6495    4.3288    7.0706 O.co2     1 ATP        -0.9341
      5 PB         -1.0800    5.2599    4.2164 P.3       1 ATP         1.6363
      6 O1B        -0.2424    6.4933    4.4711 O.co2     1 ATP        -0.9021
      7 O2B        -0.5888    3.8889    4.6259 O.co2     1 ATP        -0.9021
      8 O3B        -2.5639    5.4851    4.8593 O.3       1 ATP        -0.7799
      9 PA         -0.5530    5.0212    1.3251 P.3       1 ATP         1.7141
     10 O1A         0.5013    6.0769    1.1589 O.2       1 ATP        -0.8703
     11 O2A        -1.6202    4.9433    0.1117 O.3       1 ATP        -0.8196
     12 O3A        -1.4820    5.2163    2.6355 O.3       1 ATP        -0.7658
     13 O5'         0.0166    3.5128    1.4591 O.3       1 ATP        -0.5841
     14 C5'        -0.8811    2.4285    1.6206 C.3       1 ATP         0.1451
     15 C4'        -0.1994    1.3333    2.4288 C.3       1 ATP         0.0896
     16 O4'        -1.1285    0.2356    2.5840 O.3       1 ATP        -0.3980
     17 C3'         1.0324    0.7610    1.7344 C.3       1 ATP         0.0854
     18 O3'         1.9175    0.2377    2.7247 O.3       1 ATP        -0.5883
     19 C2'         0.4468   -0.3802    0.9263 C.3       1 ATP         0.0574
     20 O2'         1.3993   -1.3703    0.5961 O.3       1 ATP        -0.6005
     21 C1'        -0.6159   -0.9100    1.8769 C.3       1 ATP         0.4284
     22 N9         -1.7127   -1.6108    1.2130 N.pl3     1 ATP        -0.6877
     23 C8         -1.7712   -2.9546    0.9544 C.ar      1 ATP         0.5830
     24 N7         -2.8883   -3.2948    0.3462 N.2       1 ATP        -0.5778
     25 C5         -3.5834   -2.1202    0.2043 C.ar      1 ATP        -0.1986
     26 C6         -4.8225   -1.8251   -0.3554 C.ar      1 ATP         0.7073
     27 N6         -5.6154   -2.8394   -0.9189 N.pl3     1 ATP        -0.9340
     28 N1         -5.2589   -0.5425   -0.3507 N.ar      1 ATP        -0.8111
     29 C2         -4.4510    0.3913    0.2069 C.ar      1 ATP         0.6446
     30 N3         -3.2368    0.2296    0.7767 N.ar      1 ATP        -0.7095
     31 C4         -2.8684   -1.0596    0.7376 C.ar      1 ATP         0.5640
     32 HOA2       -1.2957    4.7529   -0.7942 H         1 ATP         0.4759
     33 H5'1       -1.7777    2.7838    2.1390 H         1 ATP         0.0806
     34 H5'2       -1.1661    2.0530    0.6323 H         1 ATP         0.0806
     35 H4'         0.0402    1.7079    3.4342 H         1 ATP         0.1213
     36 H3'         1.5907    1.4859    1.1353 H         1 ATP         0.1208
     37 HO3'        2.6839   -0.1150    2.2479 H         1 ATP         0.3965
     38 H2'        -0.0017    0.0018    0.0005 H         1 ATP         0.0768
     39 HO2'        2.0953   -0.9375    0.0709 H         1 ATP         0.4074
     40 H1'        -0.1998   -1.6319    2.6178 H         1 ATP         0.0935
     41 H8         -0.9745   -3.6312    1.2318 H         1 ATP         0.1424
     42 HN61       -5.2619   -3.7766   -0.9586 H         1 ATP         0.4144
     43 HN62       -6.4834   -2.5990   -1.3590 H         1 ATP         0.4144
     44 H2         -4.8317    1.4071    0.1930 H         1 ATP         0.0297
@<TRIPOS>BOND
     1    1    2 2
     2    1    3 1
     3    1    4 1
     4    1    8 1
     5    5    6 2
     6    5    7 1
     7    5    8 1
     8    5   12 1
     9    9   10 2
    10    9   11 1
    11    9   12 1
    12    9   13 1
    13   11   32 1
    14   13   14 1
    15   14   15 1
    16   14   33 1
    17   14   34 1
    18   15   16 1
    19   15   17 1
    20   15   35 1
    21   16   21 1
    22   17   18 1
    23   17   19 1
    24   17   36 1
    25   18   37 1
    26   19   20 1
    27   19   21 1
    28   19   38 1
    29   20   39 1
    30   21   22 1
    31   21   40 1
    32   22   23 ar
    33   22   31 ar
    34   23   24 ar
    35   23   41 1
    36   24   25 ar
    37   25   26 ar
    38   25   31 ar
    39   26   27 1
    40   26   28 ar
    41   27   42 1
    42   27   43 1
    43   28   29 ar
    44   29   30 ar
    45   29   44 1
    46   30   31 ar
@<TRIPOS>SUBSTRUCTURE
     1 ATP         1 GROUP 0 A     ****
@<TRIPOS>MOLECULE
[[[5-(6-aminopurin-9-yl)-3,4-dihydroxy-tetrahydrofuran-2-yl]methoxy-hydroxy-phosphoryl]oxy-oxido-phosphoryl] phosphate
   44    46     1     0     0
SMALL
USER_CHARGES

@<TRIPOS>ATOM
      1 PG         -5.4216    7.3897    0.7745 P.3       1 ATP         1.4221
      2 O1G        -6.3509    6.3206    0.2096 O.co2     1 ATP        -0.9341
      3 O2G        -5.8870    7.9950    2.0943 O.co2     1 ATP        -0.9341
      4 O3G        -4.9560    8.4178   -0.2516 O.co2     1 ATP        -0.9341
      5 PB         -3.0133    5.6887    0.2539 P.3       1 ATP         1.6363
      6 O1B        -3.7300    4.4512   -0.2387 O.co2     1 ATP        -0.9021
      7 O2B        -2.3159    6.6196   -0.7135 O.co2     1 ATP        -0.9021
      8 O3B        -4.0441    6.5721    1.1613 O.3       1 ATP        -0.7799
      9 PA         -2.1747    4.4070    2.7734 P.3       1 ATP         1.7141
     10 O1A        -3.4489    4.7361    3.4959 O.2       1 ATP        -0.8703
     11 O2A        -0.8289    4.6933    3.6245 O.3       1 ATP        -0.8196
     12 O3A        -1.9501    5.2528    1.4125 O.3       1 ATP        -0.7658
     13 O5'        -2.0394    2.8623    2.3117 O.3       1 ATP        -0.5841
     14 C5'        -0.8811    2.4285    1.6206 C.3       1 ATP         0.1451
     15 C4'        -0.1994    1.3333    2.4288 C.3       1 ATP         0.0896
     16 O4'        -1.1285    0.2356    2.5840 O.3       1 ATP        -0.3980
     17 C3'         1.0324    0.7610    1.7344 C.3       1 ATP         0.0854
     18 O3'         1.9175    0.2377    2.7247 O.3       1 ATP        -0.5883
     19 C2'         0.4468   -0.3802    0.9263 C.3       1 ATP         0.0574
     20 O2'         1.3993   -1.3703    0.5961 O.3       1 ATP        -0.6005
     21 C1'        -0.6159   -0.9100    1.8769 C.3       1 ATP         0.4284
     22 N9         -1.7127   -1.6108    1.2130 N.pl3     1 ATP        -0.6877
     23 C8         -2.8641   -1.0399    0.7392 C.ar      1 ATP         0.5830
     24 N7         -3.6659   -1.9257    0.1858 N.2       1 ATP        -0.5778
     25 C5         -3.0053   -3.1223    0.3069 C.ar      1 ATP        -0.1986
     26 C6         -3.3321   -4.4178   -0.0813 C.ar      1 ATP         0.7073
     27 N6         -4.5476   -4.6866   -0.7335 N.pl3     1 ATP        -0.9340
     28 N1         -2.4608   -5.4225    0.1773 N.ar      1 ATP        -0.8111
     29 C2         -1.3053   -5.1020    0.8081 C.ar      1 ATP         0.6446
     30 N3         -0.8788   -3.8921    1.2315 N.ar      1 ATP        -0.7095
     31 C4         -1.7870   -2.9477    0.9438 C.ar      1 ATP         0.5640
     32 HOA2       -0.6967    4.2235    4.4754 H         1 ATP         0.4759
     33 H5'1       -1.1757    2.0497    0.6364 H         1 ATP         0.0806
     34 H5'2       -0.2069    3.2809    1.4872 H         1 ATP         0.0806
     35 H4'         0.0402    1.7079    3.4342 H         1 ATP         0.1213
     36 H3'         1.5907    1.4859    1.1353 H         1 ATP         0.1208
     37 HO3'        2.1521    0.9800    3.3017 H         1 ATP         0.3965
     38 H2'        -0.0017    0.0018    0.0005 H         1 ATP         0.0768
     39 HO2'        0.9369   -2.0558    0.0825 H         1 ATP         0.4074
     40 H1'        -0.1998   -1.6319    2.6178 H         1 ATP         0.0935
     41 H8         -3.0609    0.0200    0.8250 H         1 ATP         0.1424
     42 HN61       -5.2046   -3.9433   -0.8775 H         1 ATP         0.4144
     43 HN62       -4.7849   -5.6332   -0.9625 H         1 ATP         0.4144
     44 H2         -0.6318   -5.9307    0.9993 H         1 ATP         0.0297
@<TRIPOS>BOND
     1    1    2 2
     2    1    3 1
     3    1    4 1
     4    1    8 1
     5    5    6 2
     6    5    7 1
     7    5    8 1
     8    5   12 1
     9    9   10 2
    10    9   11 1
    11    9   12 1
    12    9   13 1
    13   11   32 1
    14   13   14 1
    15   14   15 1
    16   14   33 1
    17   14   34 1
    18   15   16 1
    19   15   17 1
    20   15   35 1
    21   16   21 1
    22   17   18 1
    23   17   19 1
    24   17   36 1
    25   18   37 1
    26   19   20 1
    27   19   21 1
    28   19   38 1
    29   20   39 1
    30   21   22 1
    31   21   40 1
    32   22   23 ar
    33   22   31 ar
    34   23   24 ar
    35   23   41 1
    36   24   25 ar
    37   25   26 ar
    38   25   31 ar
    39   26   27 1
    40   26   28 ar
    41   27   42 1
    42   27   43 1
    43   28   29 ar
    44   29   30 ar
    45   29   44 1
    46   30   31 ar
@<TRIPOS>SUBSTRUCTURE
     1 ATP         1 GROUP 0 A     ****
@<TRIPOS>MOLECULE
[[[5-(6-aminopurin-9-yl)-3,4-dihydroxy-tetrahydrofuran-2-yl]methoxy-hydroxy-phosphoryl]oxy-oxido-phosphoryl] phosphate
   44    46     1     0     0
SMALL
USER_CHARGES

@<TRIPOS>ATOM
      1 PG         -0.3003    7.0789   -0.4953 P.3       1 ATP         1.4221
      2 O1G        -0.5565    7.5696   -1.9163 O.co2     1 ATP        -0.9341
      3 O2G         0.3659    8.1050    0.4148 O.co2     1 ATP        -0.9341
      4 O3G         0.3155    5.6856   -0.4174 O.co2     1 ATP        -0.9341
      5 PB         -3.0611    5.9363   -0.3040 P.3       1 ATP         1.6363
      6 O1B        -4.3411    6.5355    0.2348 O.co2     1 ATP        -0.9021
      7 O2B        -2.9115    5.6172   -1.7752 O.co2     1 ATP        -0.9021
      8 O3B        -1.8050    6.8775    0.1459 O.3       1 ATP        -0.7799
      9 PA         -2.5512    4.3890    2.1537 P.3       1 ATP         1.7141
     10 O1A        -3.7881    4.7198    2.9376 O.2       1 ATP        -0.8703
     11 O2A        -1.2598    5.2885    2.5287 O.3       1 ATP        -0.8196
     12 O3A        -2.7068    4.5958    0.5565 O.3       1 ATP        -0.7658
     13 O5'        -2.0394    2.8623    2.3117 O.3       1 ATP        -0.5841
     14 C5'        -0.8811    2.4285    1.6206 C.3       1 ATP         0.1451
     15 C4'        -0.1994    1.3333    2.4288 C.3       1 ATP         0.0896
     16 O4'        -1.1285    0.2356    2.5840 O.3       1 ATP        -0.3980
     17 C3'         1.0324    0.7610    1.7344 C.3       1 ATP         0.0854
     18 O3'         1.9175    0.2377    2.7247 O.3       1 ATP        -0.5883
     19 C2'         0.4468   -0.3802    0.9263 C.3       1 ATP         0.0574
     20 O2'         1.3993   -1.3703    0.5961 O.3       1 ATP        -0.6005
     21 C1'        -0.6159   -0.9100    1.8769 C.3       1 ATP         0.4284
     22 N9         -1.7127   -1.6108    1.2130 N.pl3     1 ATP        -0.6877
     23 C8         -2.8641   -1.0399    0.7392 C.ar      1 ATP         0.5830
     24 N7         -3.6659   -1.9257    0.1858 N.2       1 ATP        -0.5778
     25 C5         -3.0053   -3.1223    0.3069 C.ar      1 ATP        -0.1986
     26 C6         -3.3321   -4.4178   -0.0813 C.ar      1 ATP         0.7073
     27 N6         -4.5476   -4.6866   -0.7335 N.pl3     1 ATP        -0.9340
     28 N1         -2.4608   -5.4225    0.1773 N.ar      1 ATP        -0.8111
     29 C2         -1.3053   -5.1020    0.8081 C.ar      1 ATP         0.6446
     30 N3         -0.8788   -3.8921    1.2315 N.ar      1 ATP        -0.7095
     31 C4         -1.7870   -2.9477    0.9438 C.ar      1 ATP         0.5640
     32 HOA2       -1.3092    6.2612    2.4123 H         1 ATP         0.4759
     33 H5'1       -1.1757    2.0497    0.6364 H         1 ATP         0.0806
     34 H5'2       -0.2069    3.2809    1.4872 H         1 ATP         0.0806
     35 H4'         0.0402    1.7079    3.4342 H         1 ATP         0.1213
     36 H3'         1.5907    1.4859    1.1353 H         1 ATP         0.1208
     37 HO3'        2.6839   -0.1150    2.2479 H         1 ATP         0.3965
     38 H2'        -0.0017    0.0018    0.0005 H         1 ATP         0.0768
     39 HO2'        2.0953   -0.9375    0.0709 H         1 ATP         0.4074
     40 H1'        -0.1998   -1.6319    2.6178 H         1 ATP         0.0935
     41 H8         -3.0609    0.0200    0.8250 H         1 ATP         0.1424
     42 HN61       -5.2046   -3.9433   -0.8775 H         1 ATP         0.4144
     43 HN62       -4.7849   -5.6332   -0.9625 H         1 ATP         0.4144
     44 H2         -0.6318   -5.9307    0.9993 H         1 ATP         0.0297
@<TRIPOS>BOND
     1    1    2 2
     2    1    3 1
     3    1    4 1
     4    1    8 1
     5    5    6 2
     6    5    7 1
     7    5    8 1
     8    5   12 1
     9    9   10 2
    10    9   11 1
    11    9   12 1
    12    9   13 1
    13   11   32 1
    14   13   14 1
    15   14   15 1
    16   14   33 1
    17   14   34 1
    18   15   16 1
    19   15   17 1
    20   15   35 1
    21   16   21 1
    22   17   18 1
    23   17   19 1
    24   17   36 1
    25   18   37 1
    26   19   20 1
    27   19   21 1
    28   19   38 1
    29   20   39 1
    30   21   22 1
    31   21   40 1
    32   22   23 ar
    33   22   31 ar
    34   23   24 ar
    35   23   41 1
    36   24   25 ar
    37   25   26 ar
    38   25   31 ar
    39   26   27 1
    40   26   28 ar
    41   27   42 1
    42   27   43 1
    43   28   29 ar
    44   29   30 ar
    45   29   44 1
    46   30   31 ar
@<TRIPOS>SUBSTRUCTURE
     1 ATP         1 GROUP 0 A     ****
@<TRIPOS>MOLECULE
[[[5-(6-aminopurin-9-yl)-3,4-dihydroxy-tetrahydrofuran-2-yl]methoxy-hydroxy-phosphoryl]oxy-oxido-phosphoryl] phosphate
   44    46     1     0     0
SMALL
USER_CHARGES

@<TRIPOS>ATOM
      1 PG         -7.1491    3.3774    3.4422 P.3       1 ATP         1.4221
      2 O1G        -8.0665    2.1643    3.5545 O.co2     1 ATP        -0.9341
      3 O2G        -7.2830    4.3763    4.5863 O.co2     1 ATP        -0.9341
      4 O3G        -7.1263    4.0168    2.0575 O.co2     1 ATP        -0.9341
      5 PB         -4.8075    1.6455    2.7482 P.3       1 ATP         1.6363
      6 O1B        -3.7374    1.0359    3.6263 O.co2     1 ATP        -0.9021
      7 O2B        -5.8085    0.7727    2.0237 O.co2     1 ATP        -0.9021
      8 O3B        -5.6307    2.7597    3.6124 O.3       1 ATP        -0.7799
      9 PA         -3.0699    3.8636    1.8791 P.3       1 ATP         1.7141
     10 O1A        -3.6242    4.9794    2.7166 O.2       1 ATP        -0.8703
     11 O2A        -2.6660    4.2935    0.3727 O.3       1 ATP        -0.8196
     12 O3A        -4.0946    2.6307    1.6600 O.3       1 ATP        -0.7658
     13 O5'        -1.7333    3.1724    2.4738 O.3       1 ATP        -0.5841
     14 C5'        -0.8811    2.4285    1.6206 C.3       1 ATP         0.1451
     15 C4'        -0.1994    1.3333    2.4288 C.3       1 ATP         0.0896
     16 O4'        -1.1285    0.2356    2.5840 O.3       1 ATP        -0.3980
     17 C3'         1.0324    0.7610    1.7344 C.3       1 ATP         0.0854
     18 O3'         1.9175    0.2377    2.7247 O.3       1 ATP        -0.5883
     19 C2'         0.4468   -0.3802    0.9263 C.3       1 ATP         0.0574
     20 O2'         1.3993   -1.3703    0.5961 O.3       1 ATP        -0.6005
     21 C1'        -0.6159   -0.9100    1.8769 C.3       1 ATP         0.4284
     22 N9         -1.7127   -1.6108    1.2130 N.pl3     1 ATP        -0.6877
     23 C8         -2.8641   -1.0399    0.7392 C.ar      1 ATP         0.5830
     24 N7         -3.6659   -1.9257    0.1858 N.2       1 ATP        -0.5778
     25 C5         -3.0053   -3.1223    0.3069 C.ar      1 ATP        -0.1986
     26 C6         -3.3321   -4.4178   -0.0813 C.ar      1 ATP         0.7073
     27 N6         -4.5476   -4.6866   -0.7335 N.pl3     1 ATP        -0.9340
     28 N1         -2.4608   -5.4225    0.1773 N.ar      1 ATP        -0.8111
     29 C2         -1.3053   -5.1020    0.8081 C.ar      1 ATP         0.6446
     30 N3         -0.8788   -3.8921    1.2315 N.ar      1 ATP        -0.7095
     31 C4         -1.7870   -2.9477    0.9438 C.ar      1 ATP         0.5640
     32 HOA2       -3.3593    4.6549   -0.2196 H         1 ATP         0.4759
     33 H5'1       -1.4792    1.9919    0.8140 H         1 ATP         0.0806
     34 H5'2       -0.1359    3.1032    1.1865 H         1 ATP         0.0806
     35 H4'         0.0402    1.7079    3.4342 H         1 ATP         0.1213
     36 H3'         1.5907    1.4859    1.1353 H         1 ATP         0.1208
     37 HO3'        2.1521    0.9800    3.3017 H         1 ATP         0.3965
     38 H2'        -0.0017    0.0018    0.0005 H         1 ATP         0.0768
     39 HO2'        0.9369   -2.0558    0.0825 H         1 ATP         0.4074
     40 H1'        -0.1998   -1.6319    2.6178 H         1 ATP         0.0935
     41 H8         -3.0609    0.0200    0.8250 H         1 ATP         0.1424
     42 HN61       -4.7432   -5.6184   -1.0469 H         1 ATP         0.4144
     43 HN62       -5.1624   -3.9284   -0.9616 H         1 ATP         0.4144
     44 H2         -0.6318   -5.9307    0.9993 H         1 ATP         0.0297
@<TRIPOS>BOND
     1    1    2 2
     2    1    3 1
     3    1    4 1
     4    1    8 1
     5    5    6 2
     6    5    7 1
     7    5    8 1
     8    5   12 1
     9    9   10 2
    10    9   11 1
    11    9   12 1
    12    9   13 1
    13   11   32 1
    14   13   14 1
    15   14   15 1
    16   14   33 1
    17   14   34 1
    18   15   16 1
    19   15   17 1
    20   15   35 1
    21   16   21 1
    22   17   18 1
    23   17   19 1
    24   17   36 1
    25   18   37 1
    26   19   20 1
    27   19   21 1
    28   19   38 1
    29   20   39 1
    30   21   22 1
    31   21   40 1
    32   22   23 ar
    33   22   31 ar
    34   23   24 ar
    35   23   41 1
    36   24   25 ar
    37   25   26 ar
    38   25   31 ar
    39   26   27 1
    40   26   28 ar
    41   27   42 1
    42   27   43 1
    43   28   29 ar
    44   29   30 ar
    45   29   44 1
    46   30   31 ar
@<TRIPOS>SUBSTRUCTURE
     1 ATP         1 GROUP 0 A     ****
@<TRIPOS>MOLECULE
[[[5-(6-aminopurin-9-yl)-3,4-dihydroxy-tetrahydrofuran-2-yl]methoxy-hydroxy-phosphoryl]oxy-oxido-phosphoryl] phosphate
   44    46     1     0     0
SMALL
USER_CHARGES

@<TRIPOS>ATOM
      1 PG         -4.7211    5.2472   -2.9852 P.3       1 ATP         1.4221
      2 O1G        -6.1736    5.0545   -2.5621 O.co2     1 ATP        -0.9341
      3 O2G        -4.3947    6.6458   -3.4972 O.co2     1 ATP        -0.9341
      4 O3G        -4.1695    4.1219   -3.8546 O.co2     1 ATP        -0.9341
      5 PB         -3.7326    3.8965   -0.5027 P.3       1 ATP         1.6363
      6 O1B        -5.0692    3.6951    0.1760 O.co2     1 ATP        -0.9021
      7 O2B        -3.0196    2.7427   -1.1727 O.co2     1 ATP        -0.9021
      8 O3B        -3.8651    5.1134   -1.5833 O.3       1 ATP        -0.7799
      9 PA         -2.5512    4.3890    2.1537 P.3       1 ATP         1.7141
     10 O1A        -3.7881    4.7198    2.9376 O.2       1 ATP        -0.8703
     11 O2A        -1.2598    5.2885    2.5287 O.3       1 ATP        -0.8196
     12 O3A        -2.7068    4.5958    0.5565 O.3       1 ATP        -0.7658
     13 O5'        -2.0394    2.8623    2.3117 O.3       1 ATP        -0.5841
     14 C5'        -0.8811    2.4285    1.6206 C.3       1 ATP         0.1451
     15 C4'        -0.1994    1.3333    2.4288 C.3       1 ATP         0.0896
     16 O4'        -1.1285    0.2356    2.5840 O.3       1 ATP        -0.3980
     17 C3'         1.0324    0.7610    1.7344 C.3       1 ATP         0.0854
     18 O3'         1.9175    0.2377    2.7247 O.3       1 ATP        -0.5883
     19 C2'         0.4468   -0.3802    0.9263 C.3       1 ATP         0.0574
     20 O2'         1.3993   -1.3703    0.5961 O.3       1 ATP        -0.6005
     21 C1'        -0.6159   -0.9100    1.8769 C.3       1 ATP         0.4284
     22 N9         -1.7127   -1.6108    1.2130 N.pl3     1 ATP        -0.6877
     23 C8         -2.8641   -1.0399    0.7392 C.ar      1 ATP         0.5830
     24 N7         -3.6659   -1.9257    0.1858 N.2       1 ATP        -0.5778
     25 C5         -3.0053   -3.1223    0.3069 C.ar      1 ATP        -0.1986
     26 C6         -3.3321   -4.4178   -0.0813 C.ar      1 ATP         0.7073
     27 N6         -4.5476   -4.6866   -0.7335 N.pl3     1 ATP        -0.9340
     28 N1         -2.4608   -5.4225    0.1773 N.ar      1 ATP        -0.8111
     29 C2         -1.3053   -5.1020    0.8081 C.ar      1 ATP         0.6446
     30 N3         -0.8788   -3.8921    1.2315 N.ar      1 ATP        -0.7095
     31 C4         -1.7870   -2.9477    0.9438 C.ar      1 ATP         0.5640
     32 HOA2       -0.9184    5.2684    3.4480 H         1 ATP         0.4759
     33 H5'1       -1.1757    2.0497    0.6364 H         1 ATP         0.0806
     34 H5'2       -0.2069    3.2809    1.4872 H         1 ATP         0.0806
     35 H4'         0.0402    1.7079    3.4342 H         1 ATP         0.1213
     36 H3'         1.5907    1.4859    1.1353 H         1 ATP         0.1208
     37 HO3'        2.1521    0.9800    3.3017 H         1 ATP         0.3965
     38 H2'        -0.0017    0.0018    0.0005 H         1 ATP         0.0768
     39 HO2'        0.9369   -2.0558    0.0825 H         1 ATP         0.4074
     40 H1'        -0.1998   -1.6319    2.6178 H         1 ATP         0.0935
     41 H8         -3.0609    0.0200    0.8250 H         1 ATP         0.1424
     42 HN61       -4.7432   -5.6184   -1.0469 H         1 ATP         0.4144
     43 HN62       -5.1624   -3.9284   -0.9616 H         1 ATP         0.4144
     44 H2         -0.6318   -5.9307    0.9993 H         1 ATP         0.0297
@<TRIPOS>BOND
     1    1    2 2
     2    1    3 1
     3    1    4 1
     4    1    8 1
     5    5    6 2
     6    5    7 1
     7    5    8 1
     8    5   12 1
     9    9   10 2
    10    9   11 1
    11    9   12 1
    12    9   13 1
    13   11   32 1
    14   13   14 1
    15   14   15 1
    16   14   33 1
    17   14   34 1
    18   15   16 1
    19   15   17 1
    20   15   35 1
    21   16   21 1
    22   17   18 1
    23   17   19 1
    24   17   36 1
    25   18   37 1
    26   19   20 1
    27   19   21 1
    28   19   38 1
    29   20   39 1
    30   21   22 1
    31   21   40 1
    32   22   23 ar
    33   22   31 ar
    34   23   24 ar
    35   23   41 1
    36   24   25 ar
    37   25   26 ar
    38   25   31 ar
    39   26   27 1
    40   26   28 ar
    41   27   42 1
    42   27   43 1
    43   28   29 ar
    44   29   30 ar
    45   29   44 1
    46   30   31 ar
@<TRIPOS>SUBSTRUCTURE
     1 ATP         1 GROUP 0 A     ****
@<TRIPOS>MOLECULE
[[[5-(6-aminopurin-9-yl)-3,4-dihydroxy-tetrahydrofuran-2-yl]methoxy-hydroxy-phosphoryl]oxy-oxido-phosphoryl] phosphate
   44    46     1     0     0
SMALL
USER_CHARGES

@<TRIPOS>ATOM
      1 PG         -5.0589    7.3262   -0.3371 P.3       1 ATP         1.4221
      2 O1G        -6.0738    6.2169   -0.5923 O.co2     1 ATP        -0.9341
      3 O2G        -5.5393    8.4111    0.6206 O.co2     1 ATP        -0.9341
      4 O3G        -4.3891    7.8620   -1.5984 O.co2     1 ATP        -0.9341
      5 PB         -2.8586    5.3348    0.0594 P.3       1 ATP         1.6363
      6 O1B        -3.6905    4.0759   -0.0445 O.co2     1 ATP        -0.9021
      7 O2B        -1.9766    5.7801   -1.0861 O.co2     1 ATP        -0.9021
      8 O3B        -3.8313    6.5802    0.4705 O.3       1 ATP        -0.7799
      9 PA         -2.1747    4.4070    2.7734 P.3       1 ATP         1.7141
     10 O1A        -3.4489    4.7361    3.4959 O.2       1 ATP        -0.8703
     11 O2A        -0.8289    4.6933    3.6245 O.3       1 ATP        -0.8196
     12 O3A        -1.9501    5.2528    1.4125 O.3       1 ATP        -0.7658
     13 O5'        -2.0394    2.8623    2.3117 O.3       1 ATP        -0.5841
     14 C5'        -0.8811    2.4285    1.6206 C.3       1 ATP         0.1451
     15 C4'        -0.1994    1.3333    2.4288 C.3       1 ATP         0.0896
     16 O4'        -1.1285    0.2356    2.5840 O.3       1 ATP        -0.3980
     17 C3'         1.0324    0.7610    1.7344 C.3       1 ATP         0.0854
     18 O3'         1.9175    0.2377    2.7247 O.3       1 ATP        -0.5883
     19 C2'         0.4468   -0.3802    0.9263 C.3       1 ATP         0.0574
     20 O2'         1.3993   -1.3703    0.5961 O.3       1 ATP        -0.6005
     21 C1'        -0.6159   -0.9100    1.8769 C.3       1 ATP         0.4284
     22 N9         -1.7127   -1.6108    1.2130 N.pl3     1 ATP        -0.6877
     23 C8         -1.7712   -2.9546    0.9544 C.ar      1 ATP         0.5830
     24 N7         -2.8883   -3.2948    0.3462 N.2       1 ATP        -0.5778
     25 C5         -3.5834   -2.1202    0.2043 C.ar      1 ATP        -0.1986
     26 C6         -4.8225   -1.8251   -0.3554 C.ar      1 ATP         0.7073
     27 N6         -5.6154   -2.8394   -0.9189 N.pl3     1 ATP        -0.9340
     28 N1         -5.2589   -0.5425   -0.3507 N.ar      1 ATP        -0.8111
     29 C2         -4.4510    0.3913    0.2069 C.ar      1 ATP         0.6446
     30 N3         -3.2368    0.2296    0.7767 N.ar      1 ATP        -0.7095
     31 C4         -2.8684   -1.0596    0.7376 C.ar      1 ATP         0.5640
     32 HOA2       -0.6967    4.2235    4.4754 H         1 ATP         0.4759
     33 H5'1       -1.1757    2.0497    0.6364 H         1 ATP         0.0806
     34 H5'2       -0.2069    3.2809    1.4872 H         1 ATP         0.0806
     35 H4'         0.0402    1.7079    3.4342 H         1 ATP         0.1213
     36 H3'         1.5907    1.4859    1.1353 H         1 ATP         0.1208
     37 HO3'        2.6839   -0.1150    2.2479 H         1 ATP         0.3965
     38 H2'        -0.0017    0.0018    0.0005 H         1 ATP         0.0768
     39 HO2'        2.0953   -0.9375    0.0709 H         1 ATP         0.4074
     40 H1'        -0.1998   -1.6319    2.6178 H         1 ATP         0.0935
     41 H8         -0.9745   -3.6312    1.2318 H         1 ATP         0.1424
     42 HN61       -5.2619   -3.7766   -0.9586 H         1 ATP         0.4144
     43 HN62       -6.4834   -2.5990   -1.3590 H         1 ATP         0.4144
     44 H2         -4.8317    1.4071    0.1930 H         1 ATP         0.0297
@<TRIPOS>BOND
     1    1    2 2
     2    1    3 1
     3    1    4 1
     4    1    8 1
     5    5    6 2
     6    5    7 1
     7    5    8 1
     8    5   12 1
     9    9   10 2
    10    9   11 1
    11    9   12 1
    12    9   13 1
    13   11   32 1
    14   13   14 1
    15   14   15 1
    16   14   33 1
    17   14   34 1
    18   15   16 1
    19   15   17 1
    20   15   35 1
    21   16   21 1
    22   17   18 1
    23   17   19 1
    24   17   36 1
    25   18   37 1
    26   19   20 1
    27   19   21 1
    28   19   38 1
    29   20   39 1
    30   21   22 1
    31   21   40 1
    32   22   23 ar
    33   22   31 ar
    34   23   24 ar
    35   23   41 1
    36   24   25 ar
    37   25   26 ar
    38   25   31 ar
    39   26   27 1
    40   26   28 ar
    41   27   42 1
    42   27   43 1
    43   28   29 ar
    44   29   30 ar
    45   29   44 1
    46   30   31 ar
@<TRIPOS>SUBSTRUCTURE
     1 ATP         1 GROUP 0 A     ****
@<TRIPOS>MOLECULE
[[[5-(6-aminopurin-9-yl)-3,4-dihydroxy-tetrahydrofuran-2-yl]methoxy-hydroxy-phosphoryl]oxy-oxido-phosphoryl] phosphate
   44    46     1     0     0
SMALL
USER_CHARGES

@<TRIPOS>ATOM
      1 PG         -0.9596    4.9142   -2.1262 P.3       1 ATP         1.4221
      2 O1G        -1.3835    4.7210   -3.5783 O.co2     1 ATP        -0.9341
      3 O2G        -0.1155    6.1592   -1.8769 O.co2     1 ATP        -0.9341
      4 O3G        -0.4193    3.6527   -1.4603 O.co2     1 ATP        -0.9341
      5 PB         -3.7271    4.3165   -1.1526 P.3       1 ATP         1.6363
      6 O1B        -4.8831    5.2402   -0.8391 O.co2     1 ATP        -0.9021
      7 O2B        -3.8030    3.3405   -2.3060 O.co2     1 ATP        -0.9021
      8 O3B        -2.3690    5.2066   -1.3236 O.3       1 ATP        -0.7799
      9 PA         -2.9678    4.0282    1.6820 P.3       1 ATP         1.7141
     10 O1A        -4.1634    4.3948    2.5127 O.2       1 ATP        -0.8703
     11 O2A        -1.9459    5.2509    1.4023 O.3       1 ATP        -0.8196
     12 O3A        -3.3330    3.4923    0.1996 O.3       1 ATP        -0.7658
     13 O5'        -2.0394    2.8623    2.3117 O.3       1 ATP        -0.5841
     14 C5'        -0.8811    2.4285    1.6206 C.3       1 ATP         0.1451
     15 C4'        -0.1994    1.3333    2.4288 C.3       1 ATP         0.0896
     16 O4'        -1.1285    0.2356    2.5840 O.3       1 ATP        -0.3980
     17 C3'         1.0324    0.7610    1.7344 C.3       1 ATP         0.0854
     18 O3'         1.9175    0.2377    2.7247 O.3       1 ATP        -0.5883
     19 C2'         0.4468   -0.3802    0.9263 C.3       1 ATP         0.0574
     20 O2'         1.3993   -1.3703    0.5961 O.3       1 ATP        -0.6005
     21 C1'        -0.6159   -0.9100    1.8769 C.3       1 ATP         0.4284
     22 N9         -1.7127   -1.6108    1.2130 N.pl3     1 ATP        -0.6877
     23 C8         -1.7712   -2.9546    0.9544 C.ar      1 ATP         0.5830
     24 N7         -2.8883   -3.2948    0.3462 N.2       1 ATP        -0.5778
     25 C5         -3.5834   -2.1202    0.2043 C.ar      1 ATP        -0.1986
     26 C6         -4.8225   -1.8251   -0.3554 C.ar      1 ATP         0.7073
     27 N6         -5.6154   -2.8394   -0.9189 N.pl3     1 ATP        -0.9340
     28 N1         -5.2589   -0.5425   -0.3507 N.ar      1 ATP        -0.8111
     29 C2         -4.4510    0.3913    0.2069 C.ar      1 ATP         0.6446
     30 N3         -3.2368    0.2296    0.7767 N.ar      1 ATP        -0.7095
     31 C4         -2.8684   -1.0596    0.7376 C.ar      1 ATP         0.5640
     32 HOA2       -2.2745    6.0452    0.9299 H         1 ATP         0.4759
     33 H5'1       -1.1757    2.0497    0.6364 H         1 ATP         0.0806
     34 H5'2       -0.2069    3.2809    1.4872 H         1 ATP         0.0806
     35 H4'         0.0402    1.7079    3.4342 H         1 ATP         0.1213
     36 H3'         1.5907    1.4859    1.1353 H         1 ATP         0.1208
     37 HO3'        2.1521    0.9800    3.3017 H         1 ATP         0.3965
     38 H2'        -0.0017    0.0018    0.0005 H         1 ATP         0.0768
     39 HO2'        0.9369   -2.0558    0.0825 H         1 ATP         0.4074
     40 H1'        -0.1998   -1.6319    2.6178 H         1 ATP         0.0935
     41 H8         -0.9745   -3.6312    1.2318 H         1 ATP         0.1424
     42 HN61       -5.2619   -3.7766   -0.9586 H         1 ATP         0.4144
     43 HN62       -6.4834   -2.5990   -1.3590 H         1 ATP         0.4144
     44 H2         -4.8317    1.4071    0.1930 H         1 ATP         0.0297
@<TRIPOS>BOND
     1    1    2 2
     2    1    3 1
     3    1    4 1
     4    1    8 1
     5    5    6 2
     6    5    7 1
     7    5    8 1
     8    5   12 1
     9    9   10 2
    10    9   11 1
    11    9   12 1
    12    9   13 1
    13   11   32 1
    14   13   14 1
    15   14   15 1
    16   14   33 1
    17   14   34 1
    18   15   16 1
    19   15   17 1
    20   15   35 1
    21   16   21 1
    22   17   18 1
    23   17   19 1
    24   17   36 1
    25   18   37 1
    26   19   20 1
    27   19   21 1
    28   19   38 1
    29   20   39 1
    30   21   22 1
    31   21   40 1
    32   22   23 ar
    33   22   31 ar
    34   23   24 ar
    35   23   41 1
    36   24   25 ar
    37   25   26 ar
    38   25   31 ar
    39   26   27 1
    40   26   28 ar
    41   27   42 1
    42   27   43 1
    43   28   29 ar
    44   29   30 ar
    45   29   44 1
    46   30   31 ar
@<TRIPOS>SUBSTRUCTURE
     1 ATP         1 GROUP 0 A     ****
@<TRIPOS>MOLECULE
[[[5-(6-aminopurin-9-yl)-3,4-dihydroxy-tetrahydrofuran-2-yl]methoxy-hydroxy-phosphoryl]oxy-oxido-phosphoryl] phosphate
   44    46     1     0     0
SMALL
USER_CHARGES

@<TRIPOS>ATOM
      1 PG         -3.1787    3.5579   -2.8388 P.3       1 ATP         1.4221
      2 O1G        -4.5312    4.1982   -3.1323 O.co2     1 ATP        -0.9341
      3 O2G        -2.4439    3.0447   -4.0724 O.co2     1 ATP        -0.9341
      4 O3G        -3.1924    2.5777   -1.6702 O.co2     1 ATP        -0.9341
      5 PB         -2.4145    5.8102   -1.0202 P.3       1 ATP         1.6363
      6 O1B        -1.6457    7.0832   -1.2964 O.co2     1 ATP        -0.9021
      7 O2B        -3.8781    5.8533   -0.6399 O.co2     1 ATP        -0.9021
      8 O3B        -2.2460    4.8025   -2.2939 O.3       1 ATP        -0.7799
      9 PA         -0.0721    4.4467    0.1409 P.3       1 ATP         1.7141
     10 O1A         0.9346    5.5594    0.0921 O.2       1 ATP        -0.8703
     11 O2A         0.0170    3.4080   -1.0963 O.3       1 ATP        -0.8196
     12 O3A        -1.6106    4.9463    0.1069 O.3       1 ATP        -0.7658
     13 O5'         0.0166    3.5128    1.4591 O.3       1 ATP        -0.5841
     14 C5'        -0.8811    2.4285    1.6206 C.3       1 ATP         0.1451
     15 C4'        -0.1994    1.3333    2.4288 C.3       1 ATP         0.0896
     16 O4'        -1.1285    0.2356    2.5840 O.3       1 ATP        -0.3980
     17 C3'         1.0324    0.7610    1.7344 C.3       1 ATP         0.0854
     18 O3'         1.9175    0.2377    2.7247 O.3       1 ATP        -0.5883
     19 C2'         0.4468   -0.3802    0.9263 C.3       1 ATP         0.0574
     20 O2'         1.3993   -1.3703    0.5961 O.3       1 ATP        -0.6005
     21 C1'        -0.6159   -0.9100    1.8769 C.3       1 ATP         0.4284
     22 N9         -1.7127   -1.6108    1.2130 N.pl3     1 ATP        -0.6877
     23 C8         -1.7712   -2.9546    0.9544 C.ar      1 ATP         0.5830
     24 N7         -2.8883   -3.2948    0.3462 N.2       1 ATP        -0.5778
     25 C5         -3.5834   -2.1202    0.2043 C.ar      1 ATP        -0.1986
     26 C6         -4.8225   -1.8251   -0.3554 C.ar      1 ATP         0.7073
     27 N6         -5.6154   -2.8394   -0.9189 N.pl3     1 ATP        -0.9340
     28 N1         -5.2589   -0.5425   -0.3507 N.ar      1 ATP        -0.8111
     29 C2         -4.4510    0.3913    0.2069 C.ar      1 ATP         0.6446
     30 N3         -3.2368    0.2296    0.7767 N.ar      1 ATP        -0.7095
     31 C4         -2.8684   -1.0596    0.7376 C.ar      1 ATP         0.5640
     32 HOA2        0.8500    2.9102   -1.2390 H         1 ATP         0.4759
     33 H5'1       -1.7777    2.7838    2.1390 H         1 ATP         0.0806
     34 H5'2       -1.1661    2.0530    0.6323 H         1 ATP         0.0806
     35 H4'         0.0402    1.7079    3.4342 H         1 ATP         0.1213
     36 H3'         1.5907    1.4859    1.1353 H         1 ATP         0.1208
     37 HO3'        2.6839   -0.1150    2.2479 H         1 ATP         0.3965
     38 H2'        -0.0017    0.0018    0.0005 H         1 ATP         0.0768
     39 HO2'        2.0953   -0.9375    0.0709 H         1 ATP         0.4074
     40 H1'        -0.1998   -1.6319    2.6178 H         1 ATP         0.0935
     41 H8         -0.9745   -3.6312    1.2318 H         1 ATP         0.1424
     42 HN61       -5.2619   -3.7766   -0.9586 H         1 ATP         0.4144
     43 HN62       -6.4834   -2.5990   -1.3590 H         1 ATP         0.4144
     44 H2         -4.8317    1.4071    0.1930 H         1 ATP         0.0297
@<TRIPOS>BOND
     1    1    2 2
     2    1    3 1
     3    1    4 1
     4    1    8 1
     5    5    6 2
     6    5    7 1
     7    5    8 1
     8    5   12 1
     9    9   10 2
    10    9   11 1
    11    9   12 1
    12    9   13 1
    13   11   32 1
    14   13   14 1
    15   14   15 1
    16   14   33 1
    17   14   34 1
    18   15   16 1
    19   15   17 1
    20   15   35 1
    21   16   21 1
    22   17   18 1
    23   17   19 1
    24   17   36 1
    25   18   37 1
    26   19   20 1
    27   19   21 1
    28   19   38 1
    29   20   39 1
    30   21   22 1
    31   21   40 1
    32   22   23 ar
    33   22   31 ar
    34   23   24 ar
    35   23   41 1
    36   24   25 ar
    37   25   26 ar
    38   25   31 ar
    39   26   27 1
    40   26   28 ar
    41   27   42 1
    42   27   43 1
    43   28   29 ar
    44   29   30 ar
    45   29   44 1
    46   30   31 ar
@<TRIPOS>SUBSTRUCTURE
     1 ATP         1 GROUP 0 A     ****
@<TRIPOS>MOLECULE
[[[5-(6-aminopurin-9-yl)-3,4-dihydroxy-tetrahydrofuran-2-yl]methoxy-hydroxy-phosphoryl]oxy-oxido-phosphoryl] phosphate
   44    46     1     0     0
SMALL
USER_CHARGES

@<TRIPOS>ATOM
      1 PG         -7.0173    2.3832   -1.8885 P.3       1 ATP         1.4221
      2 O1G        -6.4656    2.6186   -3.2906 O.co2     1 ATP        -0.9341
      3 O2G        -7.4470    0.9463   -1.6139 O.co2     1 ATP        -0.9341
      4 O3G        -8.0250    3.4323   -1.4297 O.co2     1 ATP        -0.9341
      5 PB         -4.7633    3.9197   -0.6544 P.3       1 ATP         1.6363
      6 O1B        -3.9707    4.1834   -1.9153 O.co2     1 ATP        -0.9021
      7 O2B        -5.5919    5.0119   -0.0148 O.co2     1 ATP        -0.9021
      8 O3B        -5.7247    2.6220   -0.8945 O.3       1 ATP        -0.7799
      9 PA         -2.9678    4.0282    1.6820 P.3       1 ATP         1.7141
     10 O1A        -3.8594    4.7221    2.6706 O.2       1 ATP        -0.8703
     11 O2A        -1.9277    5.0038    0.9179 O.3       1 ATP        -0.8196
     12 O3A        -3.7615    3.2997    0.4748 O.3       1 ATP        -0.7658
     13 O5'        -2.0394    2.8623    2.3117 O.3       1 ATP        -0.5841
     14 C5'        -0.8811    2.4285    1.6206 C.3       1 ATP         0.1451
     15 C4'        -0.1994    1.3333    2.4288 C.3       1 ATP         0.0896
     16 O4'        -1.1285    0.2356    2.5840 O.3       1 ATP        -0.3980
     17 C3'         1.0324    0.7610    1.7344 C.3       1 ATP         0.0854
     18 O3'         1.9175    0.2377    2.7247 O.3       1 ATP        -0.5883
     19 C2'         0.4468   -0.3802    0.9263 C.3       1 ATP         0.0574
     20 O2'         1.3993   -1.3703    0.5961 O.3       1 ATP        -0.6005
     21 C1'        -0.6159   -0.9100    1.8769 C.3       1 ATP         0.4284
     22 N9         -1.7127   -1.6108    1.2130 N.pl3     1 ATP        -0.6877
     23 C8         -2.0877   -2.9101    1.4304 C.ar      1 ATP         0.5830
     24 N7         -3.1152   -3.2613    0.6857 N.2       1 ATP        -0.5778
     25 C5         -3.4186   -2.1409   -0.0462 C.ar      1 ATP        -0.1986
     26 C6         -4.3953   -1.8809   -1.0023 C.ar      1 ATP         0.7073
     27 N6         -5.3118   -2.8767   -1.3812 N.pl3     1 ATP        -0.9340
     28 N1         -4.4538   -0.6507   -1.5667 N.ar      1 ATP        -0.8111
     29 C2         -3.5442    0.2679   -1.1609 C.ar      1 ATP         0.6446
     30 N3         -2.5561    0.1361   -0.2491 N.ar      1 ATP        -0.7095
     31 C4         -2.5568   -1.1019    0.2674 C.ar      1 ATP         0.5640
     32 HOA2       -2.2798    5.7423    0.3769 H         1 ATP         0.4759
     33 H5'1       -1.1757    2.0497    0.6364 H         1 ATP         0.0806
     34 H5'2       -0.2069    3.2809    1.4872 H         1 ATP         0.0806
     35 H4'         0.0402    1.7079    3.4342 H         1 ATP         0.1213
     36 H3'         1.5907    1.4859    1.1353 H         1 ATP         0.1208
     37 HO3'        2.6839   -0.1150    2.2479 H         1 ATP         0.3965
     38 H2'        -0.0017    0.0018    0.0005 H         1 ATP         0.0768
     39 HO2'        2.0953   -0.9375    0.0709 H         1 ATP         0.4074
     40 H1'        -0.1998   -1.6319    2.6178 H         1 ATP         0.0935
     41 H8         -1.5778   -3.5473    2.1399 H         1 ATP         0.1424
     42 HN61       -6.0371   -2.6553   -2.0368 H         1 ATP         0.4144
     43 HN62       -5.2887   -3.7677   -0.9225 H         1 ATP         0.4144
     44 H2         -3.6201    1.2414   -1.6336 H         1 ATP         0.0297
@<TRIPOS>BOND
     1    1    2 2
     2    1    3 1
     3    1    4 1
     4    1    8 1
     5    5    6 2
     6    5    7 1
     7    5    8 1
     8    5   12 1
     9    9   10 2
    10    9   11 1
    11    9   12 1
    12    9   13 1
    13   11   32 1
    14   13   14 1
    15   14   15 1
    16   14   33 1
    17   14   34 1
    18   15   16 1
    19   15   17 1
    20   15   35 1
    21   16   21 1
    22   17   18 1
    23   17   19 1
    24   17   36 1
    25   18   37 1
    26   19   20 1
    27   19   21 1
    28   19   38 1
    29   20   39 1
    30   21   22 1
    31   21   40 1
    32   22   23 ar
    33   22   31 ar
    34   23   24 ar
    35   23   41 1
    36   24   25 ar
    37   25   26 ar
    38   25   31 ar
    39   26   27 1
    40   26   28 ar
    41   27   42 1
    42   27   43 1
    43   28   29 ar
    44   29   30 ar
    45   29   44 1
    46   30   31 ar
@<TRIPOS>SUBSTRUCTURE
     1 ATP         1 GROUP 0 A     ****
@<TRIPOS>MOLECULE
[[[5-(6-aminopurin-9-yl)-3,4-dihydroxy-tetrahydrofuran-2-yl]methoxy-hydroxy-phosphoryl]oxy-oxido-phosphoryl] phosphate
   44    46     1     0     0
SMALL
USER_CHARGES

@<TRIPOS>ATOM
      1 PG          1.2492    3.7755    5.3722 P.3       1 ATP         1.4221
      2 O1G         0.3477    3.0502    6.3656 O.co2     1 ATP        -0.9341
      3 O2G         2.2492    2.8749    4.6555 O.co2     1 ATP        -0.9341
      4 O3G         1.8505    5.0718    5.9058 O.co2     1 ATP        -0.9341
      5 PB         -1.0800    5.2599    4.2164 P.3       1 ATP         1.6363
      6 O1B        -2.1760    4.5904    5.0153 O.co2     1 ATP        -0.9021
      7 O2B        -0.6145    6.6587    4.5561 O.co2     1 ATP        -0.9021
      8 O3B         0.2257    4.2800    4.1832 O.3       1 ATP        -0.7799
      9 PA         -0.5530    5.0212    1.3251 P.3       1 ATP         1.7141
     10 O1A         0.5013    6.0769    1.1589 O.2       1 ATP        -0.8703
     11 O2A        -1.6202    4.9433    0.1117 O.3       1 ATP        -0.8196
     12 O3A        -1.4820    5.2163    2.6355 O.3       1 ATP        -0.7658
     13 O5'         0.0166    3.5128    1.4591 O.3       1 ATP        -0.5841
     14 C5'        -0.8811    2.4285    1.6206 C.3       1 ATP         0.1451
     15 C4'        -0.1994    1.3333    2.4288 C.3       1 ATP         0.0896
     16 O4'        -1.1285    0.2356    2.5840 O.3       1 ATP        -0.3980
     17 C3'         1.0324    0.7610    1.7344 C.3       1 ATP         0.0854
     18 O3'         1.9175    0.2377    2.7247 O.3       1 ATP        -0.5883
     19 C2'         0.4468   -0.3802    0.9263 C.3       1 ATP         0.0574
     20 O2'         1.3993   -1.3703    0.5961 O.3       1 ATP        -0.6005
     21 C1'        -0.6159   -0.9100    1.8769 C.3       1 ATP         0.4284
     22 N9         -1.7127   -1.6108    1.2130 N.pl3     1 ATP        -0.6877
     23 C8         -2.8641   -1.0399    0.7392 C.ar      1 ATP         0.5830
     24 N7         -3.6659   -1.9257    0.1858 N.2       1 ATP        -0.5778
     25 C5         -3.0053   -3.1223    0.3069 C.ar      1 ATP        -0.1986
     26 C6         -3.3321   -4.4178   -0.0813 C.ar      1 ATP         0.7073
     27 N6         -4.5476   -4.6866   -0.7335 N.pl3     1 ATP        -0.9340
     28 N1         -2.4608   -5.4225    0.1773 N.ar      1 ATP        -0.8111
     29 C2         -1.3053   -5.1020    0.8081 C.ar      1 ATP         0.6446
     30 N3         -0.8788   -3.8921    1.2315 N.ar      1 ATP        -0.7095
     31 C4         -1.7870   -2.9477    0.9438 C.ar      1 ATP         0.5640
     32 HOA2       -2.1660    5.7326   -0.0916 H         1 ATP         0.4759
     33 H5'1       -1.7777    2.7838    2.1390 H         1 ATP         0.0806
     34 H5'2       -1.1661    2.0530    0.6323 H         1 ATP         0.0806
     35 H4'         0.0402    1.7079    3.4342 H         1 ATP         0.1213
     36 H3'         1.5907    1.4859    1.1353 H         1 ATP         0.1208
     37 HO3'        2.1521    0.9800    3.3017 H         1 ATP         0.3965
     38 H2'        -0.0017    0.0018    0.0005 H         1 ATP         0.0768
     39 HO2'        1.7495   -1.7243    1.4324 H         1 ATP         0.4074
     40 H1'        -0.1998   -1.6319    2.6178 H         1 ATP         0.0935
     41 H8         -3.0609    0.0200    0.8250 H         1 ATP         0.1424
     42 HN61       -4.7432   -5.6184   -1.0469 H         1 ATP         0.4144
     43 HN62       -5.1624   -3.9284   -0.9616 H         1 ATP         0.4144
     44 H2         -0.6318   -5.9307    0.9993 H         1 ATP         0.0297
@<TRIPOS>BOND
     1    1    2 2
     2    1    3 1
     3    1    4 1
     4    1    8 1
     5    5    6 2
     6    5    7 1
     7    5    8 1
     8    5   12 1
     9    9   10 2
    10    9   11 1
    11    9   12 1
    12    9   13 1
    13   11   32 1
    14   13   14 1
    15   14   15 1
    16   14   33 1
    17   14   34 1
    18   15   16 1
    19   15   17 1
    20   15   35 1
    21   16   21 1
    22   17   18 1
    23   17   19 1
    24   17   36 1
    25   18   37 1
    26   19   20 1
    27   19   21 1
    28   19   38 1
    29   20   39 1
    30   21   22 1
    31   21   40 1
    32   22   23 ar
    33   22   31 ar
    34   23   24 ar
    35   23   41 1
    36   24   25 ar
    37   25   26 ar
    38   25   31 ar
    39   26   27 1
    40   26   28 ar
    41   27   42 1
    42   27   43 1
    43   28   29 ar
    44   29   30 ar
    45   29   44 1
    46   30   31 ar
@<TRIPOS>SUBSTRUCTURE
     1 ATP         1 GROUP 0 A     ****
@<TRIPOS>MOLECULE
[[[5-(6-aminopurin-9-yl)-3,4-dihydroxy-tetrahydrofuran-2-yl]methoxy-hydroxy-phosphoryl]oxy-oxido-phosphoryl] phosphate
   44    46     1     0     0
SMALL
USER_CHARGES

@<TRIPOS>ATOM
      1 PG         -1.2505    8.0318    1.3040 P.3       1 ATP         1.4221
      2 O1G        -0.6573    6.8835    2.1134 O.co2     1 ATP        -0.9341
      3 O2G        -0.3099    9.2158    1.1080 O.co2     1 ATP        -0.9341
      4 O3G        -2.6650    8.4231    1.7193 O.co2     1 ATP        -0.9341
      5 PB         -2.3136    6.1386   -0.7575 P.3       1 ATP         1.6363
      6 O1B        -3.7474    6.2898   -0.3004 O.co2     1 ATP        -0.9021
      7 O2B        -1.9815    5.9332   -2.2191 O.co2     1 ATP        -0.9021
      8 O3B        -1.4458    7.4083   -0.2090 O.3       1 ATP        -0.7799
      9 PA         -0.0721    4.4467    0.1409 P.3       1 ATP         1.7141
     10 O1A         0.9346    5.5594    0.0921 O.2       1 ATP        -0.8703
     11 O2A         0.0170    3.4080   -1.0963 O.3       1 ATP        -0.8196
     12 O3A        -1.6106    4.9463    0.1069 O.3       1 ATP        -0.7658
     13 O5'         0.0166    3.5128    1.4591 O.3       1 ATP        -0.5841
     14 C5'        -0.8811    2.4285    1.6206 C.3       1 ATP         0.1451
     15 C4'        -0.1994    1.3333    2.4288 C.3       1 ATP         0.0896
     16 O4'        -1.1285    0.2356    2.5840 O.3       1 ATP        -0.3980
     17 C3'         1.0324    0.7610    1.7344 C.3       1 ATP         0.0854
     18 O3'         1.9175    0.2377    2.7247 O.3       1 ATP        -0.5883
     19 C2'         0.4468   -0.3802    0.9263 C.3       1 ATP         0.0574
     20 O2'         1.3993   -1.3703    0.5961 O.3       1 ATP        -0.6005
     21 C1'        -0.6159   -0.9100    1.8769 C.3       1 ATP         0.4284
     22 N9         -1.7127   -1.6108    1.2130 N.pl3     1 ATP        -0.6877
     23 C8         -2.8641   -1.0399    0.7392 C.ar      1 ATP         0.5830
     24 N7         -3.6659   -1.9257    0.1858 N.2       1 ATP        -0.5778
     25 C5         -3.0053   -3.1223    0.3069 C.ar      1 ATP        -0.1986
     26 C6         -3.3321   -4.4178   -0.0813 C.ar      1 ATP         0.7073
     27 N6         -4.5476   -4.6866   -0.7335 N.pl3     1 ATP        -0.9340
     28 N1         -2.4608   -5.4225    0.1773 N.ar      1 ATP        -0.8111
     29 C2         -1.3053   -5.1020    0.8081 C.ar      1 ATP         0.6446
     30 N3         -0.8788   -3.8921    1.2315 N.ar      1 ATP        -0.7095
     31 C4         -1.7870   -2.9477    0.9438 C.ar      1 ATP         0.5640
     32 HOA2        0.8500    2.9102   -1.2390 H         1 ATP         0.4759
     33 H5'1       -1.7777    2.7838    2.1390 H         1 ATP         0.0806
     34 H5'2       -1.1661    2.0530    0.6323 H         1 ATP         0.0806
     35 H4'         0.0402    1.7079    3.4342 H         1 ATP         0.1213
     36 H3'         1.5907    1.4859    1.1353 H         1 ATP         0.1208
     37 HO3'        2.6839   -0.1150    2.2479 H         1 ATP         0.3965
     38 H2'        -0.0017    0.0018    0.0005 H         1 ATP         0.0768
     39 HO2'        0.9369   -2.0558    0.0825 H         1 ATP         0.4074
     40 H1'        -0.1998   -1.6319    2.6178 H         1 ATP         0.0935
     41 H8         -3.0609    0.0200    0.8250 H         1 ATP         0.1424
     42 HN61       -5.2046   -3.9433   -0.8775 H         1 ATP         0.4144
     43 HN62       -4.7849   -5.6332   -0.9625 H         1 ATP         0.4144
     44 H2         -0.6318   -5.9307    0.9993 H         1 ATP         0.0297
@<TRIPOS>BOND
     1    1    2 2
     2    1    3 1
     3    1    4 1
     4    1    8 1
     5    5    6 2
     6    5    7 1
     7    5    8 1
     8    5   12 1
     9    9   10 2
    10    9   11 1
    11    9   12 1
    12    9   13 1
    13   11   32 1
    14   13   14 1
    15   14   15 1
    16   14   33 1
    17   14   34 1
    18   15   16 1
    19   15   17 1
    20   15   35 1
    21   16   21 1
    22   17   18 1
    23   17   19 1
    24   17   36 1
    25   18   37 1
    26   19   20 1
    27   19   21 1
    28   19   38 1
    29   20   39 1
    30   21   22 1
    31   21   40 1
    32   22   23 ar
    33   22   31 ar
    34   23   24 ar
    35   23   41 1
    36   24   25 ar
    37   25   26 ar
    38   25   31 ar
    39   26   27 1
    40   26   28 ar
    41   27   42 1
    42   27   43 1
    43   28   29 ar
    44   29   30 ar
    45   29   44 1
    46   30   31 ar
@<TRIPOS>SUBSTRUCTURE
     1 ATP         1 GROUP 0 A     ****
@<TRIPOS>MOLECULE
[[[5-(6-aminopurin-9-yl)-3,4-dihydroxy-tetrahydrofuran-2-yl]methoxy-hydroxy-phosphoryl]oxy-oxido-phosphoryl] phosphate
   44    46     1     0     0
SMALL
USER_CHARGES

@<TRIPOS>ATOM
      1 PG         -0.9838    2.8322    5.9661 P.3       1 ATP         1.4221
      2 O1G        -1.9773    3.4475    6.9459 O.co2     1 ATP        -0.9341
      3 O2G        -1.2810    1.3836    5.5943 O.co2     1 ATP        -0.9341
      4 O3G         0.4782    3.0990    6.3092 O.co2     1 ATP        -0.9341
      5 PB         -1.0800    5.2599    4.2164 P.3       1 ATP         1.6363
      6 O1B        -2.1483    6.0216    4.9687 O.co2     1 ATP        -0.9021
      7 O2B         0.3778    5.6477    4.3316 O.co2     1 ATP        -0.9021
      8 O3B        -1.2161    3.6709    4.5666 O.3       1 ATP        -0.7799
      9 PA         -0.5530    5.0212    1.3251 P.3       1 ATP         1.7141
     10 O1A         0.5013    6.0769    1.1589 O.2       1 ATP        -0.8703
     11 O2A        -1.6202    4.9433    0.1117 O.3       1 ATP        -0.8196
     12 O3A        -1.4820    5.2163    2.6355 O.3       1 ATP        -0.7658
     13 O5'         0.0166    3.5128    1.4591 O.3       1 ATP        -0.5841
     14 C5'        -0.8811    2.4285    1.6206 C.3       1 ATP         0.1451
     15 C4'        -0.1994    1.3333    2.4288 C.3       1 ATP         0.0896
     16 O4'        -1.1285    0.2356    2.5840 O.3       1 ATP        -0.3980
     17 C3'         1.0324    0.7610    1.7344 C.3       1 ATP         0.0854
     18 O3'         1.9175    0.2377    2.7247 O.3       1 ATP        -0.5883
     19 C2'         0.4468   -0.3802    0.9263 C.3       1 ATP         0.0574
     20 O2'         1.3993   -1.3703    0.5961 O.3       1 ATP        -0.6005
     21 C1'        -0.6159   -0.9100    1.8769 C.3       1 ATP         0.4284
     22 N9         -1.7127   -1.6108    1.2130 N.pl3     1 ATP        -0.6877
     23 C8         -2.8641   -1.0399    0.7392 C.ar      1 ATP         0.5830
     24 N7         -3.6659   -1.9257    0.1858 N.2       1 ATP        -0.5778
     25 C5         -3.0053   -3.1223    0.3069 C.ar      1 ATP        -0.1986
     26 C6         -3.3321   -4.4178   -0.0813 C.ar      1 ATP         0.7073
     27 N6         -4.5476   -4.6866   -0.7335 N.pl3     1 ATP        -0.9340
     28 N1         -2.4608   -5.4225    0.1773 N.ar      1 ATP        -0.8111
     29 C2         -1.3053   -5.1020    0.8081 C.ar      1 ATP         0.6446
     30 N3         -0.8788   -3.8921    1.2315 N.ar      1 ATP        -0.7095
     31 C4         -1.7870   -2.9477    0.9438 C.ar      1 ATP         0.5640
     32 HOA2       -1.2957    4.7529   -0.7942 H         1 ATP         0.4759
     33 H5'1       -1.7777    2.7838    2.1390 H         1 ATP         0.0806
     34 H5'2       -1.1661    2.0530    0.6323 H         1 ATP         0.0806
     35 H4'         0.0402    1.7079    3.4342 H         1 ATP         0.1213
     36 H3'         1.5907    1.4859    1.1353 H         1 ATP         0.1208
     37 HO3'        2.6839   -0.1150    2.2479 H         1 ATP         0.3965
     38 H2'        -0.0017    0.0018    0.0005 H         1 ATP         0.0768
     39 HO2'        0.9369   -2.0558    0.0825 H         1 ATP         0.4074
     40 H1'        -0.1998   -1.6319    2.6178 H         1 ATP         0.0935
     41 H8         -3.0609    0.0200    0.8250 H         1 ATP         0.1424
     42 HN61       -5.2046   -3.9433   -0.8775 H         1 ATP         0.4144
     43 HN62       -4.7849   -5.6332   -0.9625 H         1 ATP         0.4144
     44 H2         -0.6318   -5.9307    0.9993 H         1 ATP         0.0297
@<TRIPOS>BOND
     1    1    2 2
     2    1    3 1
     3    1    4 1
     4    1    8 1
     5    5    6 2
     6    5    7 1
     7    5    8 1
     8    5   12 1
     9    9   10 2
    10    9   11 1
    11    9   12 1
    12    9   13 1
    13   11   32 1
    14   13   14 1
    15   14   15 1
    16   14   33 1
    17   14   34 1
    18   15   16 1
    19   15   17 1
    20   15   35 1
    21   16   21 1
    22   17   18 1
    23   17   19 1
    24   17   36 1
    25   18   37 1
    26   19   20 1
    27   19   21 1
    28   19   38 1
    29   20   39 1
    30   21   22 1
    31   21   40 1
    32   22   23 ar
    33   22   31 ar
    34   23   24 ar
    35   23   41 1
    36   24   25 ar
    37   25   26 ar
    38   25   31 ar
    39   26   27 1
    40   26   28 ar
    41   27   42 1
    42   27   43 1
    43   28   29 ar
    44   29   30 ar
    45   29   44 1
    46   30   31 ar
@<TRIPOS>SUBSTRUCTURE
     1 ATP         1 GROUP 0 A     ****
@<TRIPOS>MOLECULE
[[[5-(6-aminopurin-9-yl)-3,4-dihydroxy-tetrahydrofuran-2-yl]methoxy-hydroxy-phosphoryl]oxy-oxido-phosphoryl] phosphate
   44    46     1     0     0
SMALL
USER_CHARGES

@<TRIPOS>ATOM
      1 PG         -5.1040    6.0207    0.6734 P.3       1 ATP         1.4221
      2 O1G        -4.7725    4.5543    0.9292 O.co2     1 ATP        -0.9341
      3 O2G        -6.3444    6.5226    1.4043 O.co2     1 ATP        -0.9341
      4 O3G        -5.0395    6.4285   -0.7950 O.co2     1 ATP        -0.9341
      5 PB         -2.2491    6.8233    1.0851 P.3       1 ATP         1.6363
      6 O1B        -2.0022    7.0685   -0.3868 O.co2     1 ATP        -0.9021
      7 O2B        -1.5716    7.6718    2.1386 O.co2     1 ATP        -0.9021
      8 O3B        -3.8577    6.8487    1.3640 O.3       1 ATP        -0.7799
      9 PA         -2.1747    4.4070    2.7734 P.3       1 ATP         1.7141
     10 O1A        -3.4489    4.7361    3.4959 O.2       1 ATP        -0.8703
     11 O2A        -0.8289    4.6933    3.6245 O.3       1 ATP        -0.8196
     12 O3A        -1.9501    5.2528    1.4125 O.3       1 ATP        -0.7658
     13 O5'        -2.0394    2.8623    2.3117 O.3       1 ATP        -0.5841
     14 C5'        -0.8811    2.4285    1.6206 C.3       1 ATP         0.1451
     15 C4'        -0.1994    1.3333    2.4288 C.3       1 ATP         0.0896
     16 O4'        -1.1285    0.2356    2.5840 O.3       1 ATP        -0.3980
     17 C3'         1.0324    0.7610    1.7344 C.3       1 ATP         0.0854
     18 O3'         1.9175    0.2377    2.7247 O.3       1 ATP        -0.5883
     19 C2'         0.4468   -0.3802    0.9263 C.3       1 ATP         0.0574
     20 O2'         1.3993   -1.3703    0.5961 O.3       1 ATP        -0.6005
     21 C1'        -0.6159   -0.9100    1.8769 C.3       1 ATP         0.4284
     22 N9         -1.7127   -1.6108    1.2130 N.pl3     1 ATP        -0.6877
     23 C8         -2.8641   -1.0399    0.7392 C.ar      1 ATP         0.5830
     24 N7         -3.6659   -1.9257    0.1858 N.2       1 ATP        -0.5778
     25 C5         -3.0053   -3.1223    0.3069 C.ar      1 ATP        -0.1986
     26 C6         -3.3321   -4.4178   -0.0813 C.ar      1 ATP         0.7073
     27 N6         -4.5476   -4.6866   -0.7335 N.pl3     1 ATP        -0.9340
     28 N1         -2.4608   -5.4225    0.1773 N.ar      1 ATP        -0.8111
     29 C2         -1.3053   -5.1020    0.8081 C.ar      1 ATP         0.6446
     30 N3         -0.8788   -3.8921    1.2315 N.ar      1 ATP        -0.7095
     31 C4         -1.7870   -2.9477    0.9438 C.ar      1 ATP         0.5640
     32 HOA2       -0.6967    4.2235    4.4754 H         1 ATP         0.4759
     33 H5'1       -1.1757    2.0497    0.6364 H         1 ATP         0.0806
     34 H5'2       -0.2069    3.2809    1.4872 H         1 ATP         0.0806
     35 H4'         0.0402    1.7079    3.4342 H         1 ATP         0.1213
     36 H3'         1.5907    1.4859    1.1353 H         1 ATP         0.1208
     37 HO3'        2.6839   -0.1150    2.2479 H         1 ATP         0.3965
     38 H2'        -0.0017    0.0018    0.0005 H         1 ATP         0.0768
     39 HO2'        2.0953   -0.9375    0.0709 H         1 ATP         0.4074
     40 H1'        -0.1998   -1.6319    2.6178 H         1 ATP         0.0935
     41 H8         -3.0609    0.0200    0.8250 H         1 ATP         0.1424
     42 HN61       -5.2046   -3.9433   -0.8775 H         1 ATP         0.4144
     43 HN62       -4.7849   -5.6332   -0.9625 H         1 ATP         0.4144
     44 H2         -0.6318   -5.9307    0.9993 H         1 ATP         0.0297
@<TRIPOS>BOND
     1    1    2 2
     2    1    3 1
     3    1    4 1
     4    1    8 1
     5    5    6 2
     6    5    7 1
     7    5    8 1
     8    5   12 1
     9    9   10 2
    10    9   11 1
    11    9   12 1
    12    9   13 1
    13   11   32 1
    14   13   14 1
    15   14   15 1
    16   14   33 1
    17   14   34 1
    18   15   16 1
    19   15   17 1
    20   15   35 1
    21   16   21 1
    22   17   18 1
    23   17   19 1
    24   17   36 1
    25   18   37 1
    26   19   20 1
    27   19   21 1
    28   19   38 1
    29   20   39 1
    30   21   22 1
    31   21   40 1
    32   22   23 ar
    33   22   31 ar
    34   23   24 ar
    35   23   41 1
    36   24   25 ar
    37   25   26 ar
    38   25   31 ar
    39   26   27 1
    40   26   28 ar
    41   27   42 1
    42   27   43 1
    43   28   29 ar
    44   29   30 ar
    45   29   44 1
    46   30   31 ar
@<TRIPOS>SUBSTRUCTURE
     1 ATP         1 GROUP 0 A     ****
@<TRIPOS>MOLECULE
[[[5-(6-aminopurin-9-yl)-3,4-dihydroxy-tetrahydrofuran-2-yl]methoxy-hydroxy-phosphoryl]oxy-oxido-phosphoryl] phosphate
   44    46     1     0     0
SMALL
USER_CHARGES

@<TRIPOS>ATOM
      1 PG         -4.5810    7.3985    2.3468 P.3       1 ATP         1.4221
      2 O1G        -4.1728    7.6598    0.9009 O.co2     1 ATP        -0.9341
      3 O2G        -6.0233    6.9350    2.5200 O.co2     1 ATP        -0.9341
      4 O3G        -4.1574    8.4917    3.3225 O.co2     1 ATP        -0.9341
      5 PB         -2.0598    5.8704    2.8690 P.3       1 ATP         1.6363
      6 O1B        -1.3794    7.2152    2.9972 O.co2     1 ATP        -0.9021
      7 O2B        -1.7796    4.7603    3.8578 O.co2     1 ATP        -0.9021
      8 O3B        -3.6751    6.0983    2.7994 O.3       1 ATP        -0.7799
      9 PA         -0.4427    4.8271    0.6349 P.3       1 ATP         1.7141
     10 O1A         0.6007    5.9021    0.5371 O.2       1 ATP        -0.8703
     11 O2A        -0.9489    4.2532   -0.7905 O.3       1 ATP        -0.8196
     12 O3A        -1.8097    5.2979    1.3615 O.3       1 ATP        -0.7658
     13 O5'         0.0166    3.5128    1.4591 O.3       1 ATP        -0.5841
     14 C5'        -0.8811    2.4285    1.6206 C.3       1 ATP         0.1451
     15 C4'        -0.1994    1.3333    2.4288 C.3       1 ATP         0.0896
     16 O4'        -1.1285    0.2356    2.5840 O.3       1 ATP        -0.3980
     17 C3'         1.0324    0.7610    1.7344 C.3       1 ATP         0.0854
     18 O3'         1.9175    0.2377    2.7247 O.3       1 ATP        -0.5883
     19 C2'         0.4468   -0.3802    0.9263 C.3       1 ATP         0.0574
     20 O2'         1.3993   -1.3703    0.5961 O.3       1 ATP        -0.6005
     21 C1'        -0.6159   -0.9100    1.8769 C.3       1 ATP         0.4284
     22 N9         -1.7127   -1.6108    1.2130 N.pl3     1 ATP        -0.6877
     23 C8         -1.7712   -2.9546    0.9544 C.ar      1 ATP         0.5830
     24 N7         -2.8883   -3.2948    0.3462 N.2       1 ATP        -0.5778
     25 C5         -3.5834   -2.1202    0.2043 C.ar      1 ATP        -0.1986
     26 C6         -4.8225   -1.8251   -0.3554 C.ar      1 ATP         0.7073
     27 N6         -5.6154   -2.8394   -0.9189 N.pl3     1 ATP        -0.9340
     28 N1         -5.2589   -0.5425   -0.3507 N.ar      1 ATP        -0.8111
     29 C2         -4.4510    0.3913    0.2069 C.ar      1 ATP         0.6446
     30 N3         -3.2368    0.2296    0.7767 N.ar      1 ATP        -0.7095
     31 C4         -2.8684   -1.0596    0.7376 C.ar      1 ATP         0.5640
     32 HOA2       -1.3649    4.8701   -1.4297 H         1 ATP         0.4759
     33 H5'1       -1.7777    2.7838    2.1390 H         1 ATP         0.0806
     34 H5'2       -1.1661    2.0530    0.6323 H         1 ATP         0.0806
     35 H4'         0.0402    1.7079    3.4342 H         1 ATP         0.1213
     36 H3'         1.5907    1.4859    1.1353 H         1 ATP         0.1208
     37 HO3'        2.1521    0.9800    3.3017 H         1 ATP         0.3965
     38 H2'        -0.0017    0.0018    0.0005 H         1 ATP         0.0768
     39 HO2'        0.9369   -2.0558    0.0825 H         1 ATP         0.4074
     40 H1'        -0.1998   -1.6319    2.6178 H         1 ATP         0.0935
     41 H8         -0.9745   -3.6312    1.2318 H         1 ATP         0.1424
     42 HN61       -5.2619   -3.7766   -0.9586 H         1 ATP         0.4144
     43 HN62       -6.4834   -2.5990   -1.3590 H         1 ATP         0.4144
     44 H2         -4.8317    1.4071    0.1930 H         1 ATP         0.0297
@<TRIPOS>BOND
     1    1    2 2
     2    1    3 1
     3    1    4 1
     4    1    8 1
     5    5    6 2
     6    5    7 1
     7    5    8 1
     8    5   12 1
     9    9   10 2
    10    9   11 1
    11    9   12 1
    12    9   13 1
    13   11   32 1
    14   13   14 1
    15   14   15 1
    16   14   33 1
    17   14   34 1
    18   15   16 1
    19   15   17 1
    20   15   35 1
    21   16   21 1
    22   17   18 1
    23   17   19 1
    24   17   36 1
    25   18   37 1
    26   19   20 1
    27   19   21 1
    28   19   38 1
    29   20   39 1
    30   21   22 1
    31   21   40 1
    32   22   23 ar
    33   22   31 ar
    34   23   24 ar
    35   23   41 1
    36   24   25 ar
    37   25   26 ar
    38   25   31 ar
    39   26   27 1
    40   26   28 ar
    41   27   42 1
    42   27   43 1
    43   28   29 ar
    44   29   30 ar
    45   29   44 1
    46   30   31 ar
@<TRIPOS>SUBSTRUCTURE
     1 ATP         1 GROUP 0 A     ****
@<TRIPOS>MOLECULE
[[[5-(6-aminopurin-9-yl)-3,4-dihydroxy-tetrahydrofuran-2-yl]methoxy-hydroxy-phosphoryl]oxy-oxido-phosphoryl] phosphate
   44    46     1     0     0
SMALL
USER_CHARGES

@<TRIPOS>ATOM
      1 PG          1.2820    7.0001    5.5600 P.3       1 ATP         1.4221
      2 O1G         2.0577    5.7316    5.2212 O.co2     1 ATP        -0.9341
      3 O2G         1.9222    8.2855    5.0474 O.co2     1 ATP        -0.9341
      4 O3G         0.8097    7.0750    7.0084 O.co2     1 ATP        -0.9341
      5 PB         -1.3019    5.7436    4.7181 P.3       1 ATP         1.6363
      6 O1B        -1.2918    5.0420    6.0580 O.co2     1 ATP        -0.9021
      7 O2B        -2.5663    6.3791    4.1831 O.co2     1 ATP        -0.9021
      8 O3B        -0.1169    6.8668    4.6992 O.3       1 ATP        -0.7799
      9 PA         -0.3734    4.9769    2.0265 P.3       1 ATP         1.7141
     10 O1A         0.6631    6.0371    1.7908 O.2       1 ATP        -0.8703
     11 O2A        -1.8171    5.2934    1.3684 O.3       1 ATP        -0.8196
     12 O3A        -0.7154    4.7234    3.5875 O.3       1 ATP        -0.7658
     13 O5'         0.0166    3.5128    1.4591 O.3       1 ATP        -0.5841
     14 C5'        -0.8811    2.4285    1.6206 C.3       1 ATP         0.1451
     15 C4'        -0.1994    1.3333    2.4288 C.3       1 ATP         0.0896
     16 O4'        -1.1285    0.2356    2.5840 O.3       1 ATP        -0.3980
     17 C3'         1.0324    0.7610    1.7344 C.3       1 ATP         0.0854
     18 O3'         1.9175    0.2377    2.7247 O.3       1 ATP        -0.5883
     19 C2'         0.4468   -0.3802    0.9263 C.3       1 ATP         0.0574
     20 O2'         1.3993   -1.3703    0.5961 O.3       1 ATP        -0.6005
     21 C1'        -0.6159   -0.9100    1.8769 C.3       1 ATP         0.4284
     22 N9         -1.7127   -1.6108    1.2130 N.pl3     1 ATP        -0.6877
     23 C8         -2.8641   -1.0399    0.7392 C.ar      1 ATP         0.5830
     24 N7         -3.6659   -1.9257    0.1858 N.2       1 ATP        -0.5778
     25 C5         -3.0053   -3.1223    0.3069 C.ar      1 ATP        -0.1986
     26 C6         -3.3321   -4.4178   -0.0813 C.ar      1 ATP         0.7073
     27 N6         -4.5476   -4.6866   -0.7335 N.pl3     1 ATP        -0.9340
     28 N1         -2.4608   -5.4225    0.1773 N.ar      1 ATP        -0.8111
     29 C2         -1.3053   -5.1020    0.8081 C.ar      1 ATP         0.6446
     30 N3         -0.8788   -3.8921    1.2315 N.ar      1 ATP        -0.7095
     31 C4         -1.7870   -2.9477    0.9438 C.ar      1 ATP         0.5640
     32 HOA2       -2.2987    6.1013    1.6470 H         1 ATP         0.4759
     33 H5'1       -1.7777    2.7838    2.1390 H         1 ATP         0.0806
     34 H5'2       -1.1661    2.0530    0.6323 H         1 ATP         0.0806
     35 H4'         0.0402    1.7079    3.4342 H         1 ATP         0.1213
     36 H3'         1.5907    1.4859    1.1353 H         1 ATP         0.1208
     37 HO3'        2.6839   -0.1150    2.2479 H         1 ATP         0.3965
     38 H2'        -0.0017    0.0018    0.0005 H         1 ATP         0.0768
     39 HO2'        0.9369   -2.0558    0.0825 H         1 ATP         0.4074
     40 H1'        -0.1998   -1.6319    2.6178 H         1 ATP         0.0935
     41 H8         -3.0609    0.0200    0.8250 H         1 ATP         0.1424
     42 HN61       -5.2046   -3.9433   -0.8775 H         1 ATP         0.4144
     43 HN62       -4.7849   -5.6332   -0.9625 H         1 ATP         0.4144
     44 H2         -0.6318   -5.9307    0.9993 H         1 ATP         0.0297
@<TRIPOS>BOND
     1    1    2 2
     2    1    3 1
     3    1    4 1
     4    1    8 1
     5    5    6 2
     6    5    7 1
     7    5    8 1
     8    5   12 1
     9    9   10 2
    10    9   11 1
    11    9   12 1
    12    9   13 1
    13   11   32 1
    14   13   14 1
    15   14   15 1
    16   14   33 1
    17   14   34 1
    18   15   16 1
    19   15   17 1
    20   15   35 1
    21   16   21 1
    22   17   18 1
    23   17   19 1
    24   17   36 1
    25   18   37 1
    26   19   20 1
    27   19   21 1
    28   19   38 1
    29   20   39 1
    30   21   22 1
    31   21   40 1
    32   22   23 ar
    33   22   31 ar
    34   23   24 ar
    35   23   41 1
    36   24   25 ar
    37   25   26 ar
    38   25   31 ar
    39   26   27 1
    40   26   28 ar
    41   27   42 1
    42   27   43 1
    43   28   29 ar
    44   29   30 ar
    45   29   44 1
    46   30   31 ar
@<TRIPOS>SUBSTRUCTURE
     1 ATP         1 GROUP 0 A     ****
@<TRIPOS>MOLECULE
[[[5-(6-aminopurin-9-yl)-3,4-dihydroxy-tetrahydrofuran-2-yl]methoxy-hydroxy-phosphoryl]oxy-oxido-phosphoryl] phosphate
   44    46     1     0     0
SMALL
USER_CHARGES

@<TRIPOS>ATOM
      1 PG         -2.9967    2.6404   -2.3420 P.3       1 ATP         1.4221
      2 O1G        -3.9091    1.7358   -3.1635 O.co2     1 ATP        -0.9341
      3 O2G        -2.4237    3.8244   -3.1132 O.co2     1 ATP        -0.9341
      4 O3G        -1.9697    1.8915   -1.4988 O.co2     1 ATP        -0.9341
      5 PB         -4.9385    2.6678   -0.0632 P.3       1 ATP         1.6363
      6 O1B        -6.0481    3.6383    0.2751 O.co2     1 ATP        -0.9021
      7 O2B        -5.2478    1.2395   -0.4543 O.co2     1 ATP        -0.9021
      8 O3B        -3.9964    3.3239   -1.2243 O.3       1 ATP        -0.7799
      9 PA         -3.0699    3.8636    1.8791 P.3       1 ATP         1.7141
     10 O1A        -3.8847    4.6220    2.8865 O.2       1 ATP        -0.8703
     11 O2A        -2.5444    4.7544    0.6351 O.3       1 ATP        -0.8196
     12 O3A        -3.8657    2.6484    1.1663 O.3       1 ATP        -0.7658
     13 O5'        -1.7333    3.1724    2.4738 O.3       1 ATP        -0.5841
     14 C5'        -0.8811    2.4285    1.6206 C.3       1 ATP         0.1451
     15 C4'        -0.1994    1.3333    2.4288 C.3       1 ATP         0.0896
     16 O4'        -1.1285    0.2356    2.5840 O.3       1 ATP        -0.3980
     17 C3'         1.0324    0.7610    1.7344 C.3       1 ATP         0.0854
     18 O3'         1.9175    0.2377    2.7247 O.3       1 ATP        -0.5883
     19 C2'         0.4468   -0.3802    0.9263 C.3       1 ATP         0.0574
     20 O2'         1.3993   -1.3703    0.5961 O.3       1 ATP        -0.6005
     21 C1'        -0.6159   -0.9100    1.8769 C.3       1 ATP         0.4284
     22 N9         -1.7127   -1.6108    1.2130 N.pl3     1 ATP        -0.6877
     23 C8         -2.8641   -1.0399    0.7392 C.ar      1 ATP         0.5830
     24 N7         -3.6659   -1.9257    0.1858 N.2       1 ATP        -0.5778
     25 C5         -3.0053   -3.1223    0.3069 C.ar      1 ATP        -0.1986
     26 C6         -3.3321   -4.4178   -0.0813 C.ar      1 ATP         0.7073
     27 N6         -4.5476   -4.6866   -0.7335 N.pl3     1 ATP        -0.9340
     28 N1         -2.4608   -5.4225    0.1773 N.ar      1 ATP        -0.8111
     29 C2         -1.3053   -5.1020    0.8081 C.ar      1 ATP         0.6446
     30 N3         -0.8788   -3.8921    1.2315 N.ar      1 ATP        -0.7095
     31 C4         -1.7870   -2.9477    0.9438 C.ar      1 ATP         0.5640
     32 HOA2       -3.2019    5.1985    0.0584 H         1 ATP         0.4759
     33 H5'1       -1.4792    1.9919    0.8140 H         1 ATP         0.0806
     34 H5'2       -0.1359    3.1032    1.1865 H         1 ATP         0.0806
     35 H4'         0.0402    1.7079    3.4342 H         1 ATP         0.1213
     36 H3'         1.5907    1.4859    1.1353 H         1 ATP         0.1208
     37 HO3'        2.6839   -0.1150    2.2479 H         1 ATP         0.3965
     38 H2'        -0.0017    0.0018    0.0005 H         1 ATP         0.0768
     39 HO2'        0.9369   -2.0558    0.0825 H         1 ATP         0.4074
     40 H1'        -0.1998   -1.6319    2.6178 H         1 ATP         0.0935
     41 H8         -3.0609    0.0200    0.8250 H         1 ATP         0.1424
     42 HN61       -5.2046   -3.9433   -0.8775 H         1 ATP         0.4144
     43 HN62       -4.7849   -5.6332   -0.9625 H         1 ATP         0.4144
     44 H2         -0.6318   -5.9307    0.9993 H         1 ATP         0.0297
@<TRIPOS>BOND
     1    1    2 2
     2    1    3 1
     3    1    4 1
     4    1    8 1
     5    5    6 2
     6    5    7 1
     7    5    8 1
     8    5   12 1
     9    9   10 2
    10    9   11 1
    11    9   12 1
    12    9   13 1
    13   11   32 1
    14   13   14 1
    15   14   15 1
    16   14   33 1
    17   14   34 1
    18   15   16 1
    19   15   17 1
    20   15   35 1
    21   16   21 1
    22   17   18 1
    23   17   19 1
    24   17   36 1
    25   18   37 1
    26   19   20 1
    27   19   21 1
    28   19   38 1
    29   20   39 1
    30   21   22 1
    31   21   40 1
    32   22   23 ar
    33   22   31 ar
    34   23   24 ar
    35   23   41 1
    36   24   25 ar
    37   25   26 ar
    38   25   31 ar
    39   26   27 1
    40   26   28 ar
    41   27   42 1
    42   27   43 1
    43   28   29 ar
    44   29   30 ar
    45   29   44 1
    46   30   31 ar
@<TRIPOS>SUBSTRUCTURE
     1 ATP         1 GROUP 0 A     ****
@<TRIPOS>MOLECULE
[[[5-(6-aminopurin-9-yl)-3,4-dihydroxy-tetrahydrofuran-2-yl]methoxy-hydroxy-phosphoryl]oxy-oxido-phosphoryl] phosphate
   44    46     1     0     0
SMALL
USER_CHARGES

@<TRIPOS>ATOM
      1 PG         -3.0376    8.6423    0.4541 P.3       1 ATP         1.4221
      2 O1G        -4.1926    8.5996    1.4490 O.co2     1 ATP        -0.9341
      3 O2G        -1.7727    9.3073    0.9858 O.co2     1 ATP        -0.9341
      4 O3G        -3.4366    9.0950   -0.9468 O.co2     1 ATP        -0.9341
      5 PB         -3.4608    5.7723   -0.2863 P.3       1 ATP         1.6363
      6 O1B        -4.8875    5.8829    0.2035 O.co2     1 ATP        -0.9021
      7 O2B        -3.1563    5.5821   -1.7559 O.co2     1 ATP        -0.9021
      8 O3B        -2.6153    7.0626    0.2488 O.3       1 ATP        -0.7799
      9 PA         -2.5512    4.3890    2.1537 P.3       1 ATP         1.7141
     10 O1A        -3.7881    4.7198    2.9376 O.2       1 ATP        -0.8703
     11 O2A        -1.2598    5.2885    2.5287 O.3       1 ATP        -0.8196
     12 O3A        -2.7068    4.5958    0.5565 O.3       1 ATP        -0.7658
     13 O5'        -2.0394    2.8623    2.3117 O.3       1 ATP        -0.5841
     14 C5'        -0.8811    2.4285    1.6206 C.3       1 ATP         0.1451
     15 C4'        -0.1994    1.3333    2.4288 C.3       1 ATP         0.0896
     16 O4'        -1.1285    0.2356    2.5840 O.3       1 ATP        -0.3980
     17 C3'         1.0324    0.7610    1.7344 C.3       1 ATP         0.0854
     18 O3'         1.9175    0.2377    2.7247 O.3       1 ATP        -0.5883
     19 C2'         0.4468   -0.3802    0.9263 C.3       1 ATP         0.0574
     20 O2'         1.3993   -1.3703    0.5961 O.3       1 ATP        -0.6005
     21 C1'        -0.6159   -0.9100    1.8769 C.3       1 ATP         0.4284
     22 N9         -1.7127   -1.6108    1.2130 N.pl3     1 ATP        -0.6877
     23 C8         -1.7712   -2.9546    0.9544 C.ar      1 ATP         0.5830
     24 N7         -2.8883   -3.2948    0.3462 N.2       1 ATP        -0.5778
     25 C5         -3.5834   -2.1202    0.2043 C.ar      1 ATP        -0.1986
     26 C6         -4.8225   -1.8251   -0.3554 C.ar      1 ATP         0.7073
     27 N6         -5.6154   -2.8394   -0.9189 N.pl3     1 ATP        -0.9340
     28 N1         -5.2589   -0.5425   -0.3507 N.ar      1 ATP        -0.8111
     29 C2         -4.4510    0.3913    0.2069 C.ar      1 ATP         0.6446
     30 N3         -3.2368    0.2296    0.7767 N.ar      1 ATP        -0.7095
     31 C4         -2.8684   -1.0596    0.7376 C.ar      1 ATP         0.5640
     32 HOA2       -0.9184    5.2684    3.4480 H         1 ATP         0.4759
     33 H5'1       -1.1757    2.0497    0.6364 H         1 ATP         0.0806
     34 H5'2       -0.2069    3.2809    1.4872 H         1 ATP         0.0806
     35 H4'         0.0402    1.7079    3.4342 H         1 ATP         0.1213
     36 H3'         1.5907    1.4859    1.1353 H         1 ATP         0.1208
     37 HO3'        2.1521    0.9800    3.3017 H         1 ATP         0.3965
     38 H2'        -0.0017    0.0018    0.0005 H         1 ATP         0.0768
     39 HO2'        0.9369   -2.0558    0.0825 H         1 ATP         0.4074
     40 H1'        -0.1998   -1.6319    2.6178 H         1 ATP         0.0935
     41 H8         -0.9745   -3.6312    1.2318 H         1 ATP         0.1424
     42 HN61       -6.5251   -2.6138   -1.2745 H         1 ATP         0.4144
     43 HN62       -5.3033   -3.7910   -0.8740 H         1 ATP         0.4144
     44 H2         -4.8317    1.4071    0.1930 H         1 ATP         0.0297
@<TRIPOS>BOND
     1    1    2 2
     2    1    3 1
     3    1    4 1
     4    1    8 1
     5    5    6 2
     6    5    7 1
     7    5    8 1
     8    5   12 1
     9    9   10 2
    10    9   11 1
    11    9   12 1
    12    9   13 1
    13   11   32 1
    14   13   14 1
    15   14   15 1
    16   14   33 1
    17   14   34 1
    18   15   16 1
    19   15   17 1
    20   15   35 1
    21   16   21 1
    22   17   18 1
    23   17   19 1
    24   17   36 1
    25   18   37 1
    26   19   20 1
    27   19   21 1
    28   19   38 1
    29   20   39 1
    30   21   22 1
    31   21   40 1
    32   22   23 ar
    33   22   31 ar
    34   23   24 ar
    35   23   41 1
    36   24   25 ar
    37   25   26 ar
    38   25   31 ar
    39   26   27 1
    40   26   28 ar
    41   27   42 1
    42   27   43 1
    43   28   29 ar
    44   29   30 ar
    45   29   44 1
    46   30   31 ar
@<TRIPOS>SUBSTRUCTURE
     1 ATP         1 GROUP 0 A     ****
@<TRIPOS>MOLECULE
[[[5-(6-aminopurin-9-yl)-3,4-dihydroxy-tetrahydrofuran-2-yl]methoxy-hydroxy-phosphoryl]oxy-oxido-phosphoryl] phosphate
   44    46     1     0     0
SMALL
USER_CHARGES

@<TRIPOS>ATOM
      1 PG         -1.4499    6.7253   -3.6125 P.3       1 ATP         1.4221
      2 O1G        -2.3598    7.9345   -3.4235 O.co2     1 ATP        -0.9341
      3 O2G        -0.0016    7.0721   -3.9398 O.co2     1 ATP        -0.9341
      4 O3G        -2.0419    5.6302   -4.4939 O.co2     1 ATP        -0.9341
      5 PB         -2.5393    5.4170   -1.1497 P.3       1 ATP         1.6363
      6 O1B        -3.4412    6.5419   -0.6929 O.co2     1 ATP        -0.9021
      7 O2B        -3.1108    4.1838   -1.8140 O.co2     1 ATP        -0.9021
      8 O3B        -1.3780    6.0297   -2.1203 O.3       1 ATP        -0.7799
      9 PA         -0.0721    4.4467    0.1409 P.3       1 ATP         1.7141
     10 O1A         0.9346    5.5594    0.0921 O.2       1 ATP        -0.8703
     11 O2A         0.0170    3.4080   -1.0963 O.3       1 ATP        -0.8196
     12 O3A        -1.6106    4.9463    0.1069 O.3       1 ATP        -0.7658
     13 O5'         0.0166    3.5128    1.4591 O.3       1 ATP        -0.5841
     14 C5'        -0.8811    2.4285    1.6206 C.3       1 ATP         0.1451
     15 C4'        -0.1994    1.3333    2.4288 C.3       1 ATP         0.0896
     16 O4'        -1.1285    0.2356    2.5840 O.3       1 ATP        -0.3980
     17 C3'         1.0324    0.7610    1.7344 C.3       1 ATP         0.0854
     18 O3'         1.9175    0.2377    2.7247 O.3       1 ATP        -0.5883
     19 C2'         0.4468   -0.3802    0.9263 C.3       1 ATP         0.0574
     20 O2'         1.3993   -1.3703    0.5961 O.3       1 ATP        -0.6005
     21 C1'        -0.6159   -0.9100    1.8769 C.3       1 ATP         0.4284
     22 N9         -1.7127   -1.6108    1.2130 N.pl3     1 ATP        -0.6877
     23 C8         -2.8641   -1.0399    0.7392 C.ar      1 ATP         0.5830
     24 N7         -3.6659   -1.9257    0.1858 N.2       1 ATP        -0.5778
     25 C5         -3.0053   -3.1223    0.3069 C.ar      1 ATP        -0.1986
     26 C6         -3.3321   -4.4178   -0.0813 C.ar      1 ATP         0.7073
     27 N6         -4.5476   -4.6866   -0.7335 N.pl3     1 ATP        -0.9340
     28 N1         -2.4608   -5.4225    0.1773 N.ar      1 ATP        -0.8111
     29 C2         -1.3053   -5.1020    0.8081 C.ar      1 ATP         0.6446
     30 N3         -0.8788   -3.8921    1.2315 N.ar      1 ATP        -0.7095
     31 C4         -1.7870   -2.9477    0.9438 C.ar      1 ATP         0.5640
     32 HOA2        0.8500    2.9102   -1.2390 H         1 ATP         0.4759
     33 H5'1       -1.7777    2.7838    2.1390 H         1 ATP         0.0806
     34 H5'2       -1.1661    2.0530    0.6323 H         1 ATP         0.0806
     35 H4'         0.0402    1.7079    3.4342 H         1 ATP         0.1213
     36 H3'         1.5907    1.4859    1.1353 H         1 ATP         0.1208
     37 HO3'        2.6839   -0.1150    2.2479 H         1 ATP         0.3965
     38 H2'        -0.0017    0.0018    0.0005 H         1 ATP         0.0768
     39 HO2'        2.0953   -0.9375    0.0709 H         1 ATP         0.4074
     40 H1'        -0.1998   -1.6319    2.6178 H         1 ATP         0.0935
     41 H8         -3.0609    0.0200    0.8250 H         1 ATP         0.1424
     42 HN61       -5.2046   -3.9433   -0.8775 H         1 ATP         0.4144
     43 HN62       -4.7849   -5.6332   -0.9625 H         1 ATP         0.4144
     44 H2         -0.6318   -5.9307    0.9993 H         1 ATP         0.0297
@<TRIPOS>BOND
     1    1    2 2
     2    1    3 1
     3    1    4 1
     4    1    8 1
     5    5    6 2
     6    5    7 1
     7    5    8 1
     8    5   12 1
     9    9   10 2
    10    9   11 1
    11    9   12 1
    12    9   13 1
    13   11   32 1
    14   13   14 1
    15   14   15 1
    16   14   33 1
    17   14   34 1
    18   15   16 1
    19   15   17 1
    20   15   35 1
    21   16   21 1
    22   17   18 1
    23   17   19 1
    24   17   36 1
    25   18   37 1
    26   19   20 1
    27   19   21 1
    28   19   38 1
    29   20   39 1
    30   21   22 1
    31   21   40 1
    32   22   23 ar
    33   22   31 ar
    34   23   24 ar
    35   23   41 1
    36   24   25 ar
    37   25   26 ar
    38   25   31 ar
    39   26   27 1
    40   26   28 ar
    41   27   42 1
    42   27   43 1
    43   28   29 ar
    44   29   30 ar
    45   29   44 1
    46   30   31 ar
@<TRIPOS>SUBSTRUCTURE
     1 ATP         1 GROUP 0 A     ****
@<TRIPOS>MOLECULE
[[[5-(6-aminopurin-9-yl)-3,4-dihydroxy-tetrahydrofuran-2-yl]methoxy-hydroxy-phosphoryl]oxy-oxido-phosphoryl] phosphate
   44    46     1     0     0
SMALL
USER_CHARGES

@<TRIPOS>ATOM
      1 PG         -7.5306    1.0590    0.7957 P.3       1 ATP         1.4221
      2 O1G        -7.1299   -0.4015    0.6172 O.co2     1 ATP        -0.9341
      3 O2G        -8.0789    1.3973    2.1777 O.co2     1 ATP        -0.9341
      4 O3G        -8.3544    1.6257   -0.3562 O.co2     1 ATP        -0.9341
      5 PB         -4.9894    1.9977   -0.4791 P.3       1 ATP         1.6363
      6 O1B        -4.8690    0.6562   -1.1672 O.co2     1 ATP        -0.9021
      7 O2B        -5.2604    3.2567   -1.2730 O.co2     1 ATP        -0.9021
      8 O3B        -6.1091    1.8878    0.7042 O.3       1 ATP        -0.7799
      9 PA         -3.3127    3.4213    1.4847 P.3       1 ATP         1.7141
     10 O1A        -4.4741    3.8481    2.3349 O.2       1 ATP        -0.8703
     11 O2A        -2.7034    4.5906    0.5473 O.3       1 ATP        -0.8196
     12 O3A        -3.6608    2.2381    0.4374 O.3       1 ATP        -0.7658
     13 O5'        -2.0394    2.8623    2.3117 O.3       1 ATP        -0.5841
     14 C5'        -0.8811    2.4285    1.6206 C.3       1 ATP         0.1451
     15 C4'        -0.1994    1.3333    2.4288 C.3       1 ATP         0.0896
     16 O4'        -1.1285    0.2356    2.5840 O.3       1 ATP        -0.3980
     17 C3'         1.0324    0.7610    1.7344 C.3       1 ATP         0.0854
     18 O3'         1.9175    0.2377    2.7247 O.3       1 ATP        -0.5883
     19 C2'         0.4468   -0.3802    0.9263 C.3       1 ATP         0.0574
     20 O2'         1.3993   -1.3703    0.5961 O.3       1 ATP        -0.6005
     21 C1'        -0.6159   -0.9100    1.8769 C.3       1 ATP         0.4284
     22 N9         -1.7127   -1.6108    1.2130 N.pl3     1 ATP        -0.6877
     23 C8         -2.5476   -1.0844    0.2632 C.ar      1 ATP         0.5830
     24 N7         -3.4391   -1.9591   -0.1536 N.2       1 ATP        -0.5778
     25 C5         -3.1701   -3.1016    0.5574 C.ar      1 ATP        -0.1986
     26 C6         -3.7593   -4.3620    0.5656 C.ar      1 ATP         0.7073
     27 N6         -4.8512   -4.6493   -0.2712 N.pl3     1 ATP        -0.9340
     28 N1         -3.2659   -5.3144    1.3932 N.ar      1 ATP        -0.8111
     29 C2         -2.2122   -4.9785    2.1759 C.ar      1 ATP         0.6446
     30 N3         -1.5595   -3.7985    2.2572 N.ar      1 ATP        -0.7095
     31 C4         -2.0986   -2.9054    1.4140 C.ar      1 ATP         0.5640
     32 HOA2       -2.3471    5.4006    0.9704 H         1 ATP         0.4759
     33 H5'1       -1.1757    2.0497    0.6364 H         1 ATP         0.0806
     34 H5'2       -0.2069    3.2809    1.4872 H         1 ATP         0.0806
     35 H4'         0.0402    1.7079    3.4342 H         1 ATP         0.1213
     36 H3'         1.5907    1.4859    1.1353 H         1 ATP         0.1208
     37 HO3'        2.1521    0.9800    3.3017 H         1 ATP         0.3965
     38 H2'        -0.0017    0.0018    0.0005 H         1 ATP         0.0768
     39 HO2'        1.7495   -1.7243    1.4324 H         1 ATP         0.4074
     40 H1'        -0.1998   -1.6319    2.6178 H         1 ATP         0.0935
     41 H8         -2.4576   -0.0639   -0.0831 H         1 ATP         0.1424
     42 HN61       -5.2371   -3.9234   -0.8448 H         1 ATP         0.4144
     43 HN62       -5.2909   -5.5485   -0.2160 H         1 ATP         0.4144
     44 H2         -1.8433   -5.7650    2.8259 H         1 ATP         0.0297
@<TRIPOS>BOND
     1    1    2 2
     2    1    3 1
     3    1    4 1
     4    1    8 1
     5    5    6 2
     6    5    7 1
     7    5    8 1
     8    5   12 1
     9    9   10 2
    10    9   11 1
    11    9   12 1
    12    9   13 1
    13   11   32 1
    14   13   14 1
    15   14   15 1
    16   14   33 1
    17   14   34 1
    18   15   16 1
    19   15   17 1
    20   15   35 1
    21   16   21 1
    22   17   18 1
    23   17   19 1
    24   17   36 1
    25   18   37 1
    26   19   20 1
    27   19   21 1
    28   19   38 1
    29   20   39 1
    30   21   22 1
    31   21   40 1
    32   22   23 ar
    33   22   31 ar
    34   23   24 ar
    35   23   41 1
    36   24   25 ar
    37   25   26 ar
    38   25   31 ar
    39   26   27 1
    40   26   28 ar
    41   27   42 1
    42   27   43 1
    43   28   29 ar
    44   29   30 ar
    45   29   44 1
    46   30   31 ar
@<TRIPOS>SUBSTRUCTURE
     1 ATP         1 GROUP 0 A     ****
@<TRIPOS>MOLECULE
[[[5-(6-aminopurin-9-yl)-3,4-dihydroxy-tetrahydrofuran-2-yl]methoxy-hydroxy-phosphoryl]oxy-oxido-phosphoryl] phosphate
   44    46     1     0     0
SMALL
USER_CHARGES

@<TRIPOS>ATOM
      1 PG         -1.4499    6.7253   -3.6125 P.3       1 ATP         1.4221
      2 O1G        -2.3598    7.9345   -3.4235 O.co2     1 ATP        -0.9341
      3 O2G        -0.0016    7.0721   -3.9398 O.co2     1 ATP        -0.9341
      4 O3G        -2.0419    5.6302   -4.4939 O.co2     1 ATP        -0.9341
      5 PB         -2.5393    5.4170   -1.1497 P.3       1 ATP         1.6363
      6 O1B        -3.4412    6.5419   -0.6929 O.co2     1 ATP        -0.9021
      7 O2B        -3.1108    4.1838   -1.8140 O.co2     1 ATP        -0.9021
      8 O3B        -1.3780    6.0297   -2.1203 O.3       1 ATP        -0.7799
      9 PA         -0.0721    4.4467    0.1409 P.3       1 ATP         1.7141
     10 O1A         0.9346    5.5594    0.0921 O.2       1 ATP        -0.8703
     11 O2A         0.0170    3.4080   -1.0963 O.3       1 ATP        -0.8196
     12 O3A        -1.6106    4.9463    0.1069 O.3       1 ATP        -0.7658
     13 O5'         0.0166    3.5128    1.4591 O.3       1 ATP        -0.5841
     14 C5'        -0.8811    2.4285    1.6206 C.3       1 ATP         0.1451
     15 C4'        -0.1994    1.3333    2.4288 C.3       1 ATP         0.0896
     16 O4'        -1.1285    0.2356    2.5840 O.3       1 ATP        -0.3980
     17 C3'         1.0324    0.7610    1.7344 C.3       1 ATP         0.0854
     18 O3'         1.9175    0.2377    2.7247 O.3       1 ATP        -0.5883
     19 C2'         0.4468   -0.3802    0.9263 C.3       1 ATP         0.0574
     20 O2'         1.3993   -1.3703    0.5961 O.3       1 ATP        -0.6005
     21 C1'        -0.6159   -0.9100    1.8769 C.3       1 ATP         0.4284
     22 N9         -1.7127   -1.6108    1.2130 N.pl3     1 ATP        -0.6877
     23 C8         -1.7712   -2.9546    0.9544 C.ar      1 ATP         0.5830
     24 N7         -2.8883   -3.2948    0.3462 N.2       1 ATP        -0.5778
     25 C5         -3.5834   -2.1202    0.2043 C.ar      1 ATP        -0.1986
     26 C6         -4.8225   -1.8251   -0.3554 C.ar      1 ATP         0.7073
     27 N6         -5.6154   -2.8394   -0.9189 N.pl3     1 ATP        -0.9340
     28 N1         -5.2589   -0.5425   -0.3507 N.ar      1 ATP        -0.8111
     29 C2         -4.4510    0.3913    0.2069 C.ar      1 ATP         0.6446
     30 N3         -3.2368    0.2296    0.7767 N.ar      1 ATP        -0.7095
     31 C4         -2.8684   -1.0596    0.7376 C.ar      1 ATP         0.5640
     32 HOA2        0.8500    2.9102   -1.2390 H         1 ATP         0.4759
     33 H5'1       -1.7777    2.7838    2.1390 H         1 ATP         0.0806
     34 H5'2       -1.1661    2.0530    0.6323 H         1 ATP         0.0806
     35 H4'         0.0402    1.7079    3.4342 H         1 ATP         0.1213
     36 H3'         1.5907    1.4859    1.1353 H         1 ATP         0.1208
     37 HO3'        2.6839   -0.1150    2.2479 H         1 ATP         0.3965
     38 H2'        -0.0017    0.0018    0.0005 H         1 ATP         0.0768
     39 HO2'        2.0953   -0.9375    0.0709 H         1 ATP         0.4074
     40 H1'        -0.1998   -1.6319    2.6178 H         1 ATP         0.0935
     41 H8         -0.9745   -3.6312    1.2318 H         1 ATP         0.1424
     42 HN61       -5.2619   -3.7766   -0.9586 H         1 ATP         0.4144
     43 HN62       -6.4834   -2.5990   -1.3590 H         1 ATP         0.4144
     44 H2         -4.8317    1.4071    0.1930 H         1 ATP         0.0297
@<TRIPOS>BOND
     1    1    2 2
     2    1    3 1
     3    1    4 1
     4    1    8 1
     5    5    6 2
     6    5    7 1
     7    5    8 1
     8    5   12 1
     9    9   10 2
    10    9   11 1
    11    9   12 1
    12    9   13 1
    13   11   32 1
    14   13   14 1
    15   14   15 1
    16   14   33 1
    17   14   34 1
    18   15   16 1
    19   15   17 1
    20   15   35 1
    21   16   21 1
    22   17   18 1
    23   17   19 1
    24   17   36 1
    25   18   37 1
    26   19   20 1
    27   19   21 1
    28   19   38 1
    29   20   39 1
    30   21   22 1
    31   21   40 1
    32   22   23 ar
    33   22   31 ar
    34   23   24 ar
    35   23   41 1
    36   24   25 ar
    37   25   26 ar
    38   25   31 ar
    39   26   27 1
    40   26   28 ar
    41   27   42 1
    42   27   43 1
    43   28   29 ar
    44   29   30 ar
    45   29   44 1
    46   30   31 ar
@<TRIPOS>SUBSTRUCTURE
     1 ATP         1 GROUP 0 A     ****
@<TRIPOS>MOLECULE
[[[5-(6-aminopurin-9-yl)-3,4-dihydroxy-tetrahydrofuran-2-yl]methoxy-hydroxy-phosphoryl]oxy-oxido-phosphoryl] phosphate
   44    46     1     0     0
SMALL
USER_CHARGES

@<TRIPOS>ATOM
      1 PG         -2.2413    8.5197   -1.0910 P.3       1 ATP         1.4221
      2 O1G        -0.7931    8.7121   -1.5284 O.co2     1 ATP        -0.9341
      3 O2G        -3.2046    8.1956   -2.2276 O.co2     1 ATP        -0.9341
      4 O3G        -2.7505    9.5890   -0.1298 O.co2     1 ATP        -0.9341
      5 PB         -1.4058    6.7757    1.1947 P.3       1 ATP         1.6363
      6 O1B         0.0752    6.7239    0.8919 O.co2     1 ATP        -0.9021
      7 O2B        -1.9403    7.6423    2.3137 O.co2     1 ATP        -0.9021
      8 O3B        -2.2136    7.1509   -0.1738 O.3       1 ATP        -0.7799
      9 PA         -2.1747    4.4070    2.7734 P.3       1 ATP         1.7141
     10 O1A        -3.4489    4.7361    3.4959 O.2       1 ATP        -0.8703
     11 O2A        -0.8289    4.6933    3.6245 O.3       1 ATP        -0.8196
     12 O3A        -1.9501    5.2528    1.4125 O.3       1 ATP        -0.7658
     13 O5'        -2.0394    2.8623    2.3117 O.3       1 ATP        -0.5841
     14 C5'        -0.8811    2.4285    1.6206 C.3       1 ATP         0.1451
     15 C4'        -0.1994    1.3333    2.4288 C.3       1 ATP         0.0896
     16 O4'        -1.1285    0.2356    2.5840 O.3       1 ATP        -0.3980
     17 C3'         1.0324    0.7610    1.7344 C.3       1 ATP         0.0854
     18 O3'         1.9175    0.2377    2.7247 O.3       1 ATP        -0.5883
     19 C2'         0.4468   -0.3802    0.9263 C.3       1 ATP         0.0574
     20 O2'         1.3993   -1.3703    0.5961 O.3       1 ATP        -0.6005
     21 C1'        -0.6159   -0.9100    1.8769 C.3       1 ATP         0.4284
     22 N9         -1.7127   -1.6108    1.2130 N.pl3     1 ATP        -0.6877
     23 C8         -2.8641   -1.0399    0.7392 C.ar      1 ATP         0.5830
     24 N7         -3.6659   -1.9257    0.1858 N.2       1 ATP        -0.5778
     25 C5         -3.0053   -3.1223    0.3069 C.ar      1 ATP        -0.1986
     26 C6         -3.3321   -4.4178   -0.0813 C.ar      1 ATP         0.7073
     27 N6         -4.5476   -4.6866   -0.7335 N.pl3     1 ATP        -0.9340
     28 N1         -2.4608   -5.4225    0.1773 N.ar      1 ATP        -0.8111
     29 C2         -1.3053   -5.1020    0.8081 C.ar      1 ATP         0.6446
     30 N3         -0.8788   -3.8921    1.2315 N.ar      1 ATP        -0.7095
     31 C4         -1.7870   -2.9477    0.9438 C.ar      1 ATP         0.5640
     32 HOA2       -0.6967    4.2235    4.4754 H         1 ATP         0.4759
     33 H5'1       -1.1757    2.0497    0.6364 H         1 ATP         0.0806
     34 H5'2       -0.2069    3.2809    1.4872 H         1 ATP         0.0806
     35 H4'         0.0402    1.7079    3.4342 H         1 ATP         0.1213
     36 H3'         1.5907    1.4859    1.1353 H         1 ATP         0.1208
     37 HO3'        2.6839   -0.1150    2.2479 H         1 ATP         0.3965
     38 H2'        -0.0017    0.0018    0.0005 H         1 ATP         0.0768
     39 HO2'        2.0953   -0.9375    0.0709 H         1 ATP         0.4074
     40 H1'        -0.1998   -1.6319    2.6178 H         1 ATP         0.0935
     41 H8         -3.0609    0.0200    0.8250 H         1 ATP         0.1424
     42 HN61       -5.2046   -3.9433   -0.8775 H         1 ATP         0.4144
     43 HN62       -4.7849   -5.6332   -0.9625 H         1 ATP         0.4144
     44 H2         -0.6318   -5.9307    0.9993 H         1 ATP         0.0297
@<TRIPOS>BOND
     1    1    2 2
     2    1    3 1
     3    1    4 1
     4    1    8 1
     5    5    6 2
     6    5    7 1
     7    5    8 1
     8    5   12 1
     9    9   10 2
    10    9   11 1
    11    9   12 1
    12    9   13 1
    13   11   32 1
    14   13   14 1
    15   14   15 1
    16   14   33 1
    17   14   34 1
    18   15   16 1
    19   15   17 1
    20   15   35 1
    21   16   21 1
    22   17   18 1
    23   17   19 1
    24   17   36 1
    25   18   37 1
    26   19   20 1
    27   19   21 1
    28   19   38 1
    29   20   39 1
    30   21   22 1
    31   21   40 1
    32   22   23 ar
    33   22   31 ar
    34   23   24 ar
    35   23   41 1
    36   24   25 ar
    37   25   26 ar
    38   25   31 ar
    39   26   27 1
    40   26   28 ar
    41   27   42 1
    42   27   43 1
    43   28   29 ar
    44   29   30 ar
    45   29   44 1
    46   30   31 ar
@<TRIPOS>SUBSTRUCTURE
     1 ATP         1 GROUP 0 A     ****
@<TRIPOS>MOLECULE
[[[5-(6-aminopurin-9-yl)-3,4-dihydroxy-tetrahydrofuran-2-yl]methoxy-hydroxy-phosphoryl]oxy-oxido-phosphoryl] phosphate
   44    46     1     0     0
SMALL
USER_CHARGES

@<TRIPOS>ATOM
      1 PG         -3.4145    7.9889   -1.5314 P.3       1 ATP         1.4221
      2 O1G        -4.8402    7.5313   -1.8209 O.co2     1 ATP        -0.9341
      3 O2G        -3.3029    9.0518   -0.4439 O.co2     1 ATP        -0.9341
      4 O3G        -2.5887    8.2861   -2.7789 O.co2     1 ATP        -0.9341
      5 PB         -2.4301    5.1618   -1.4785 P.3       1 ATP         1.6363
      6 O1B        -3.7644    4.4693   -1.6446 O.co2     1 ATP        -0.9021
      7 O2B        -1.4595    5.2660   -2.6343 O.co2     1 ATP        -0.9021
      8 O3B        -2.6819    6.6618   -0.8847 O.3       1 ATP        -0.7799
      9 PA         -0.0721    4.4467    0.1409 P.3       1 ATP         1.7141
     10 O1A         0.5714    5.7955    0.2838 O.2       1 ATP        -0.8703
     11 O2A         0.5439    3.5327   -1.0435 O.3       1 ATP        -0.8196
     12 O3A        -1.6517    4.5020   -0.2051 O.3       1 ATP        -0.7658
     13 O5'         0.0166    3.5128    1.4591 O.3       1 ATP        -0.5841
     14 C5'        -0.8811    2.4285    1.6206 C.3       1 ATP         0.1451
     15 C4'        -0.1994    1.3333    2.4288 C.3       1 ATP         0.0896
     16 O4'        -1.1285    0.2356    2.5840 O.3       1 ATP        -0.3980
     17 C3'         1.0324    0.7610    1.7344 C.3       1 ATP         0.0854
     18 O3'         1.9175    0.2377    2.7247 O.3       1 ATP        -0.5883
     19 C2'         0.4468   -0.3802    0.9263 C.3       1 ATP         0.0574
     20 O2'         1.3993   -1.3703    0.5961 O.3       1 ATP        -0.6005
     21 C1'        -0.6159   -0.9100    1.8769 C.3       1 ATP         0.4284
     22 N9         -1.7127   -1.6108    1.2130 N.pl3     1 ATP        -0.6877
     23 C8         -2.8641   -1.0399    0.7392 C.ar      1 ATP         0.5830
     24 N7         -3.6659   -1.9257    0.1858 N.2       1 ATP        -0.5778
     25 C5         -3.0053   -3.1223    0.3069 C.ar      1 ATP        -0.1986
     26 C6         -3.3321   -4.4178   -0.0813 C.ar      1 ATP         0.7073
     27 N6         -4.5476   -4.6866   -0.7335 N.pl3     1 ATP        -0.9340
     28 N1         -2.4608   -5.4225    0.1773 N.ar      1 ATP        -0.8111
     29 C2         -1.3053   -5.1020    0.8081 C.ar      1 ATP         0.6446
     30 N3         -0.8788   -3.8921    1.2315 N.ar      1 ATP        -0.7095
     31 C4         -1.7870   -2.9477    0.9438 C.ar      1 ATP         0.5640
     32 HOA2        1.4943    3.2922   -1.0117 H         1 ATP         0.4759
     33 H5'1       -1.7777    2.7838    2.1390 H         1 ATP         0.0806
     34 H5'2       -1.1661    2.0530    0.6323 H         1 ATP         0.0806
     35 H4'         0.0402    1.7079    3.4342 H         1 ATP         0.1213
     36 H3'         1.5907    1.4859    1.1353 H         1 ATP         0.1208
     37 HO3'        2.6839   -0.1150    2.2479 H         1 ATP         0.3965
     38 H2'        -0.0017    0.0018    0.0005 H         1 ATP         0.0768
     39 HO2'        2.0953   -0.9375    0.0709 H         1 ATP         0.4074
     40 H1'        -0.1998   -1.6319    2.6178 H         1 ATP         0.0935
     41 H8         -3.0609    0.0200    0.8250 H         1 ATP         0.1424
     42 HN61       -5.2046   -3.9433   -0.8775 H         1 ATP         0.4144
     43 HN62       -4.7849   -5.6332   -0.9625 H         1 ATP         0.4144
     44 H2         -0.6318   -5.9307    0.9993 H         1 ATP         0.0297
@<TRIPOS>BOND
     1    1    2 2
     2    1    3 1
     3    1    4 1
     4    1    8 1
     5    5    6 2
     6    5    7 1
     7    5    8 1
     8    5   12 1
     9    9   10 2
    10    9   11 1
    11    9   12 1
    12    9   13 1
    13   11   32 1
    14   13   14 1
    15   14   15 1
    16   14   33 1
    17   14   34 1
    18   15   16 1
    19   15   17 1
    20   15   35 1
    21   16   21 1
    22   17   18 1
    23   17   19 1
    24   17   36 1
    25   18   37 1
    26   19   20 1
    27   19   21 1
    28   19   38 1
    29   20   39 1
    30   21   22 1
    31   21   40 1
    32   22   23 ar
    33   22   31 ar
    34   23   24 ar
    35   23   41 1
    36   24   25 ar
    37   25   26 ar
    38   25   31 ar
    39   26   27 1
    40   26   28 ar
    41   27   42 1
    42   27   43 1
    43   28   29 ar
    44   29   30 ar
    45   29   44 1
    46   30   31 ar
@<TRIPOS>SUBSTRUCTURE
     1 ATP         1 GROUP 0 A     ****
@<TRIPOS>MOLECULE
[[[5-(6-aminopurin-9-yl)-3,4-dihydroxy-tetrahydrofuran-2-yl]methoxy-hydroxy-phosphoryl]oxy-oxido-phosphoryl] phosphate
   44    46     1     0     0
SMALL
USER_CHARGES

@<TRIPOS>ATOM
      1 PG         -6.1169    3.3548   -0.6037 P.3       1 ATP         1.4221
      2 O1G        -5.5085    2.5019    0.5045 O.co2     1 ATP        -0.9341
      3 O2G        -7.4454    4.0079   -0.2382 O.co2     1 ATP        -0.9341
      4 O3G        -6.1061    2.6933   -1.9780 O.co2     1 ATP        -0.9341
      5 PB         -3.4838    4.6714   -1.1490 P.3       1 ATP         1.6363
      6 O1B        -3.2621    3.9174   -2.4413 O.co2     1 ATP        -0.9021
      7 O2B        -3.0063    6.0981   -0.9900 O.co2     1 ATP        -0.9021
      8 O3B        -5.0710    4.6175   -0.7696 O.3       1 ATP        -0.7799
      9 PA         -2.9678    4.0282    1.6820 P.3       1 ATP         1.7141
     10 O1A        -4.3665    4.0777    2.2251 O.2       1 ATP        -0.8703
     11 O2A        -2.1154    5.3856    1.9015 O.3       1 ATP        -0.8196
     12 O3A        -2.8881    3.7843    0.0844 O.3       1 ATP        -0.7658
     13 O5'        -2.0394    2.8623    2.3117 O.3       1 ATP        -0.5841
     14 C5'        -0.8811    2.4285    1.6206 C.3       1 ATP         0.1451
     15 C4'        -0.1994    1.3333    2.4288 C.3       1 ATP         0.0896
     16 O4'        -1.1285    0.2356    2.5840 O.3       1 ATP        -0.3980
     17 C3'         1.0324    0.7610    1.7344 C.3       1 ATP         0.0854
     18 O3'         1.9175    0.2377    2.7247 O.3       1 ATP        -0.5883
     19 C2'         0.4468   -0.3802    0.9263 C.3       1 ATP         0.0574
     20 O2'         1.3993   -1.3703    0.5961 O.3       1 ATP        -0.6005
     21 C1'        -0.6159   -0.9100    1.8769 C.3       1 ATP         0.4284
     22 N9         -1.7127   -1.6108    1.2130 N.pl3     1 ATP        -0.6877
     23 C8         -2.0877   -2.9101    1.4304 C.ar      1 ATP         0.5830
     24 N7         -3.1152   -3.2613    0.6857 N.2       1 ATP        -0.5778
     25 C5         -3.4186   -2.1409   -0.0462 C.ar      1 ATP        -0.1986
     26 C6         -4.3953   -1.8809   -1.0023 C.ar      1 ATP         0.7073
     27 N6         -5.3118   -2.8767   -1.3812 N.pl3     1 ATP        -0.9340
     28 N1         -4.4538   -0.6507   -1.5667 N.ar      1 ATP        -0.8111
     29 C2         -3.5442    0.2679   -1.1609 C.ar      1 ATP         0.6446
     30 N3         -2.5561    0.1361   -0.2491 N.ar      1 ATP        -0.7095
     31 C4         -2.5568   -1.1019    0.2674 C.ar      1 ATP         0.5640
     32 HOA2       -1.9576    5.7042    2.8157 H         1 ATP         0.4759
     33 H5'1       -1.1757    2.0497    0.6364 H         1 ATP         0.0806
     34 H5'2       -0.2069    3.2809    1.4872 H         1 ATP         0.0806
     35 H4'         0.0402    1.7079    3.4342 H         1 ATP         0.1213
     36 H3'         1.5907    1.4859    1.1353 H         1 ATP         0.1208
     37 HO3'        2.6839   -0.1150    2.2479 H         1 ATP         0.3965
     38 H2'        -0.0017    0.0018    0.0005 H         1 ATP         0.0768
     39 HO2'        0.9369   -2.0558    0.0825 H         1 ATP         0.4074
     40 H1'        -0.1998   -1.6319    2.6178 H         1 ATP         0.0935
     41 H8         -1.5778   -3.5473    2.1399 H         1 ATP         0.1424
     42 HN61       -5.2294   -3.7965   -0.9914 H         1 ATP         0.4144
     43 HN62       -5.9774   -2.6837   -2.1055 H         1 ATP         0.4144
     44 H2         -3.6201    1.2414   -1.6336 H         1 ATP         0.0297
@<TRIPOS>BOND
     1    1    2 2
     2    1    3 1
     3    1    4 1
     4    1    8 1
     5    5    6 2
     6    5    7 1
     7    5    8 1
     8    5   12 1
     9    9   10 2
    10    9   11 1
    11    9   12 1
    12    9   13 1
    13   11   32 1
    14   13   14 1
    15   14   15 1
    16   14   33 1
    17   14   34 1
    18   15   16 1
    19   15   17 1
    20   15   35 1
    21   16   21 1
    22   17   18 1
    23   17   19 1
    24   17   36 1
    25   18   37 1
    26   19   20 1
    27   19   21 1
    28   19   38 1
    29   20   39 1
    30   21   22 1
    31   21   40 1
    32   22   23 ar
    33   22   31 ar
    34   23   24 ar
    35   23   41 1
    36   24   25 ar
    37   25   26 ar
    38   25   31 ar
    39   26   27 1
    40   26   28 ar
    41   27   42 1
    42   27   43 1
    43   28   29 ar
    44   29   30 ar
    45   29   44 1
    46   30   31 ar
@<TRIPOS>SUBSTRUCTURE
     1 ATP         1 GROUP 0 A     ****
@<TRIPOS>MOLECULE
[[[5-(6-aminopurin-9-yl)-3,4-dihydroxy-tetrahydrofuran-2-yl]methoxy-hydroxy-phosphoryl]oxy-oxido-phosphoryl] phosphate
   44    46     1     0     0
SMALL
USER_CHARGES

@<TRIPOS>ATOM
      1 PG         -3.8097    7.9862    0.2725 P.3       1 ATP         1.4221
      2 O1G        -3.6055    8.2832    1.7543 O.co2     1 ATP        -0.9341
      3 O2G        -3.2543    9.0521   -0.6658 O.co2     1 ATP        -0.9341
      4 O3G        -5.2172    7.5176   -0.0822 O.co2     1 ATP        -0.9341
      5 PB         -2.8916    5.1587    0.6282 P.3       1 ATP         1.6363
      6 O1B        -2.5056    5.2429    2.0881 O.co2     1 ATP        -0.9021
      7 O2B        -4.1728    4.4769    0.2012 O.co2     1 ATP        -0.9021
      8 O3B        -2.8730    6.6606   -0.0123 O.3       1 ATP        -0.7799
      9 PA         -0.0721    4.4467    0.1409 P.3       1 ATP         1.7141
     10 O1A         0.5714    5.7955    0.2838 O.2       1 ATP        -0.8703
     11 O2A         0.5439    3.5327   -1.0435 O.3       1 ATP        -0.8196
     12 O3A        -1.6517    4.5020   -0.2051 O.3       1 ATP        -0.7658
     13 O5'         0.0166    3.5128    1.4591 O.3       1 ATP        -0.5841
     14 C5'        -0.8811    2.4285    1.6206 C.3       1 ATP         0.1451
     15 C4'        -0.1994    1.3333    2.4288 C.3       1 ATP         0.0896
     16 O4'        -1.1285    0.2356    2.5840 O.3       1 ATP        -0.3980
     17 C3'         1.0324    0.7610    1.7344 C.3       1 ATP         0.0854
     18 O3'         1.9175    0.2377    2.7247 O.3       1 ATP        -0.5883
     19 C2'         0.4468   -0.3802    0.9263 C.3       1 ATP         0.0574
     20 O2'         1.3993   -1.3703    0.5961 O.3       1 ATP        -0.6005
     21 C1'        -0.6159   -0.9100    1.8769 C.3       1 ATP         0.4284
     22 N9         -1.7127   -1.6108    1.2130 N.pl3     1 ATP        -0.6877
     23 C8         -1.7712   -2.9546    0.9544 C.ar      1 ATP         0.5830
     24 N7         -2.8883   -3.2948    0.3462 N.2       1 ATP        -0.5778
     25 C5         -3.5834   -2.1202    0.2043 C.ar      1 ATP        -0.1986
     26 C6         -4.8225   -1.8251   -0.3554 C.ar      1 ATP         0.7073
     27 N6         -5.6154   -2.8394   -0.9189 N.pl3     1 ATP        -0.9340
     28 N1         -5.2589   -0.5425   -0.3507 N.ar      1 ATP        -0.8111
     29 C2         -4.4510    0.3913    0.2069 C.ar      1 ATP         0.6446
     30 N3         -3.2368    0.2296    0.7767 N.ar      1 ATP        -0.7095
     31 C4         -2.8684   -1.0596    0.7376 C.ar      1 ATP         0.5640
     32 HOA2        1.4943    3.2922   -1.0117 H         1 ATP         0.4759
     33 H5'1       -1.7777    2.7838    2.1390 H         1 ATP         0.0806
     34 H5'2       -1.1661    2.0530    0.6323 H         1 ATP         0.0806
     35 H4'         0.0402    1.7079    3.4342 H         1 ATP         0.1213
     36 H3'         1.5907    1.4859    1.1353 H         1 ATP         0.1208
     37 HO3'        2.6839   -0.1150    2.2479 H         1 ATP         0.3965
     38 H2'        -0.0017    0.0018    0.0005 H         1 ATP         0.0768
     39 HO2'        2.0953   -0.9375    0.0709 H         1 ATP         0.4074
     40 H1'        -0.1998   -1.6319    2.6178 H         1 ATP         0.0935
     41 H8         -0.9745   -3.6312    1.2318 H         1 ATP         0.1424
     42 HN61       -5.2619   -3.7766   -0.9586 H         1 ATP         0.4144
     43 HN62       -6.4834   -2.5990   -1.3590 H         1 ATP         0.4144
     44 H2         -4.8317    1.4071    0.1930 H         1 ATP         0.0297
@<TRIPOS>BOND
     1    1    2 2
     2    1    3 1
     3    1    4 1
     4    1    8 1
     5    5    6 2
     6    5    7 1
     7    5    8 1
     8    5   12 1
     9    9   10 2
    10    9   11 1
    11    9   12 1
    12    9   13 1
    13   11   32 1
    14   13   14 1
    15   14   15 1
    16   14   33 1
    17   14   34 1
    18   15   16 1
    19   15   17 1
    20   15   35 1
    21   16   21 1
    22   17   18 1
    23   17   19 1
    24   17   36 1
    25   18   37 1
    26   19   20 1
    27   19   21 1
    28   19   38 1
    29   20   39 1
    30   21   22 1
    31   21   40 1
    32   22   23 ar
    33   22   31 ar
    34   23   24 ar
    35   23   41 1
    36   24   25 ar
    37   25   26 ar
    38   25   31 ar
    39   26   27 1
    40   26   28 ar
    41   27   42 1
    42   27   43 1
    43   28   29 ar
    44   29   30 ar
    45   29   44 1
    46   30   31 ar
@<TRIPOS>SUBSTRUCTURE
     1 ATP         1 GROUP 0 A     ****
@<TRIPOS>MOLECULE
[[[5-(6-aminopurin-9-yl)-3,4-dihydroxy-tetrahydrofuran-2-yl]methoxy-hydroxy-phosphoryl]oxy-oxido-phosphoryl] phosphate
   44    46     1     0     0
SMALL
USER_CHARGES

@<TRIPOS>ATOM
      1 PG          1.7599    6.1528    6.5633 P.3       1 ATP         1.4221
      2 O1G         3.0857    5.4818    6.2202 O.co2     1 ATP        -0.9341
      3 O2G         1.7903    7.6760    6.5010 O.co2     1 ATP        -0.9341
      4 O3G         1.0820    5.5945    7.8104 O.co2     1 ATP        -0.9341
      5 PB          0.2494    4.2485    4.8150 P.3       1 ATP         1.6363
      6 O1B         1.4332    3.5018    4.2419 O.co2     1 ATP        -0.9021
      7 O2B        -0.6129    3.6284    5.8924 O.co2     1 ATP        -0.9021
      8 O3B         0.7490    5.7122    5.3386 O.3       1 ATP        -0.7799
      9 PA         -0.3734    4.9769    2.0265 P.3       1 ATP         1.7141
     10 O1A         0.6631    6.0371    1.7908 O.2       1 ATP        -0.8703
     11 O2A        -1.8171    5.2934    1.3684 O.3       1 ATP        -0.8196
     12 O3A        -0.7154    4.7234    3.5875 O.3       1 ATP        -0.7658
     13 O5'         0.0166    3.5128    1.4591 O.3       1 ATP        -0.5841
     14 C5'        -0.8811    2.4285    1.6206 C.3       1 ATP         0.1451
     15 C4'        -0.1994    1.3333    2.4288 C.3       1 ATP         0.0896
     16 O4'        -1.1285    0.2356    2.5840 O.3       1 ATP        -0.3980
     17 C3'         1.0324    0.7610    1.7344 C.3       1 ATP         0.0854
     18 O3'         1.9175    0.2377    2.7247 O.3       1 ATP        -0.5883
     19 C2'         0.4468   -0.3802    0.9263 C.3       1 ATP         0.0574
     20 O2'         1.3993   -1.3703    0.5961 O.3       1 ATP        -0.6005
     21 C1'        -0.6159   -0.9100    1.8769 C.3       1 ATP         0.4284
     22 N9         -1.7127   -1.6108    1.2130 N.pl3     1 ATP        -0.6877
     23 C8         -2.8641   -1.0399    0.7392 C.ar      1 ATP         0.5830
     24 N7         -3.6659   -1.9257    0.1858 N.2       1 ATP        -0.5778
     25 C5         -3.0053   -3.1223    0.3069 C.ar      1 ATP        -0.1986
     26 C6         -3.3321   -4.4178   -0.0813 C.ar      1 ATP         0.7073
     27 N6         -4.5476   -4.6866   -0.7335 N.pl3     1 ATP        -0.9340
     28 N1         -2.4608   -5.4225    0.1773 N.ar      1 ATP        -0.8111
     29 C2         -1.3053   -5.1020    0.8081 C.ar      1 ATP         0.6446
     30 N3         -0.8788   -3.8921    1.2315 N.ar      1 ATP        -0.7095
     31 C4         -1.7870   -2.9477    0.9438 C.ar      1 ATP         0.5640
     32 HOA2       -1.8797    5.4137    0.3970 H         1 ATP         0.4759
     33 H5'1       -1.7777    2.7838    2.1390 H         1 ATP         0.0806
     34 H5'2       -1.1661    2.0530    0.6323 H         1 ATP         0.0806
     35 H4'         0.0402    1.7079    3.4342 H         1 ATP         0.1213
     36 H3'         1.5907    1.4859    1.1353 H         1 ATP         0.1208
     37 HO3'        2.6839   -0.1150    2.2479 H         1 ATP         0.3965
     38 H2'        -0.0017    0.0018    0.0005 H         1 ATP         0.0768
     39 HO2'        2.0953   -0.9375    0.0709 H         1 ATP         0.4074
     40 H1'        -0.1998   -1.6319    2.6178 H         1 ATP         0.0935
     41 H8         -3.0609    0.0200    0.8250 H         1 ATP         0.1424
     42 HN61       -5.2046   -3.9433   -0.8775 H         1 ATP         0.4144
     43 HN62       -4.7849   -5.6332   -0.9625 H         1 ATP         0.4144
     44 H2         -0.6318   -5.9307    0.9993 H         1 ATP         0.0297
@<TRIPOS>BOND
     1    1    2 2
     2    1    3 1
     3    1    4 1
     4    1    8 1
     5    5    6 2
     6    5    7 1
     7    5    8 1
     8    5   12 1
     9    9   10 2
    10    9   11 1
    11    9   12 1
    12    9   13 1
    13   11   32 1
    14   13   14 1
    15   14   15 1
    16   14   33 1
    17   14   34 1
    18   15   16 1
    19   15   17 1
    20   15   35 1
    21   16   21 1
    22   17   18 1
    23   17   19 1
    24   17   36 1
    25   18   37 1
    26   19   20 1
    27   19   21 1
    28   19   38 1
    29   20   39 1
    30   21   22 1
    31   21   40 1
    32   22   23 ar
    33   22   31 ar
    34   23   24 ar
    35   23   41 1
    36   24   25 ar
    37   25   26 ar
    38   25   31 ar
    39   26   27 1
    40   26   28 ar
    41   27   42 1
    42   27   43 1
    43   28   29 ar
    44   29   30 ar
    45   29   44 1
    46   30   31 ar
@<TRIPOS>SUBSTRUCTURE
     1 ATP         1 GROUP 0 A     ****
@<TRIPOS>MOLECULE
[[[5-(6-aminopurin-9-yl)-3,4-dihydroxy-tetrahydrofuran-2-yl]methoxy-hydroxy-phosphoryl]oxy-oxido-phosphoryl] phosphate
   44    46     1     0     0
SMALL
USER_CHARGES

@<TRIPOS>ATOM
      1 PG         -3.4305    0.0978   -2.4660 P.3       1 ATP         1.4221
      2 O1G        -2.0487    0.5010   -1.9623 O.co2     1 ATP        -0.9341
      3 O2G        -3.6825   -1.4060   -2.4775 O.co2     1 ATP        -0.9341
      4 O3G        -3.8619    0.8107   -3.7435 O.co2     1 ATP        -0.9341
      5 PB         -4.7469    2.1924   -0.7796 P.3       1 ATP         1.6363
      6 O1B        -4.3270    3.1824   -1.8432 O.co2     1 ATP        -0.9021
      7 O2B        -6.1375    2.2335   -0.1852 O.co2     1 ATP        -0.9021
      8 O3B        -4.4678    0.6788   -1.3249 O.3       1 ATP        -0.7799
      9 PA         -3.3127    3.4213    1.4847 P.3       1 ATP         1.7141
     10 O1A        -4.4741    3.8481    2.3349 O.2       1 ATP        -0.8703
     11 O2A        -2.7034    4.5906    0.5473 O.3       1 ATP        -0.8196
     12 O3A        -3.6608    2.2381    0.4374 O.3       1 ATP        -0.7658
     13 O5'        -2.0394    2.8623    2.3117 O.3       1 ATP        -0.5841
     14 C5'        -0.8811    2.4285    1.6206 C.3       1 ATP         0.1451
     15 C4'        -0.1994    1.3333    2.4288 C.3       1 ATP         0.0896
     16 O4'        -1.1285    0.2356    2.5840 O.3       1 ATP        -0.3980
     17 C3'         1.0324    0.7610    1.7344 C.3       1 ATP         0.0854
     18 O3'         1.9175    0.2377    2.7247 O.3       1 ATP        -0.5883
     19 C2'         0.4468   -0.3802    0.9263 C.3       1 ATP         0.0574
     20 O2'         1.3993   -1.3703    0.5961 O.3       1 ATP        -0.6005
     21 C1'        -0.6159   -0.9100    1.8769 C.3       1 ATP         0.4284
     22 N9         -1.7127   -1.6108    1.2130 N.pl3     1 ATP        -0.6877
     23 C8         -2.8641   -1.0399    0.7392 C.ar      1 ATP         0.5830
     24 N7         -3.6659   -1.9257    0.1858 N.2       1 ATP        -0.5778
     25 C5         -3.0053   -3.1223    0.3069 C.ar      1 ATP        -0.1986
     26 C6         -3.3321   -4.4178   -0.0813 C.ar      1 ATP         0.7073
     27 N6         -4.5476   -4.6866   -0.7335 N.pl3     1 ATP        -0.9340
     28 N1         -2.4608   -5.4225    0.1773 N.ar      1 ATP        -0.8111
     29 C2         -1.3053   -5.1020    0.8081 C.ar      1 ATP         0.6446
     30 N3         -0.8788   -3.8921    1.2315 N.ar      1 ATP        -0.7095
     31 C4         -1.7870   -2.9477    0.9438 C.ar      1 ATP         0.5640
     32 HOA2       -3.2848    5.0168   -0.1179 H         1 ATP         0.4759
     33 H5'1       -1.1757    2.0497    0.6364 H         1 ATP         0.0806
     34 H5'2       -0.2069    3.2809    1.4872 H         1 ATP         0.0806
     35 H4'         0.0402    1.7079    3.4342 H         1 ATP         0.1213
     36 H3'         1.5907    1.4859    1.1353 H         1 ATP         0.1208
     37 HO3'        2.1521    0.9800    3.3017 H         1 ATP         0.3965
     38 H2'        -0.0017    0.0018    0.0005 H         1 ATP         0.0768
     39 HO2'        0.9369   -2.0558    0.0825 H         1 ATP         0.4074
     40 H1'        -0.1998   -1.6319    2.6178 H         1 ATP         0.0935
     41 H8         -3.0609    0.0200    0.8250 H         1 ATP         0.1424
     42 HN61       -4.7432   -5.6184   -1.0469 H         1 ATP         0.4144
     43 HN62       -5.1624   -3.9284   -0.9616 H         1 ATP         0.4144
     44 H2         -0.6318   -5.9307    0.9993 H         1 ATP         0.0297
@<TRIPOS>BOND
     1    1    2 2
     2    1    3 1
     3    1    4 1
     4    1    8 1
     5    5    6 2
     6    5    7 1
     7    5    8 1
     8    5   12 1
     9    9   10 2
    10    9   11 1
    11    9   12 1
    12    9   13 1
    13   11   32 1
    14   13   14 1
    15   14   15 1
    16   14   33 1
    17   14   34 1
    18   15   16 1
    19   15   17 1
    20   15   35 1
    21   16   21 1
    22   17   18 1
    23   17   19 1
    24   17   36 1
    25   18   37 1
    26   19   20 1
    27   19   21 1
    28   19   38 1
    29   20   39 1
    30   21   22 1
    31   21   40 1
    32   22   23 ar
    33   22   31 ar
    34   23   24 ar
    35   23   41 1
    36   24   25 ar
    37   25   26 ar
    38   25   31 ar
    39   26   27 1
    40   26   28 ar
    41   27   42 1
    42   27   43 1
    43   28   29 ar
    44   29   30 ar
    45   29   44 1
    46   30   31 ar
@<TRIPOS>SUBSTRUCTURE
     1 ATP         1 GROUP 0 A     ****
@<TRIPOS>MOLECULE
[[[5-(6-aminopurin-9-yl)-3,4-dihydroxy-tetrahydrofuran-2-yl]methoxy-hydroxy-phosphoryl]oxy-oxido-phosphoryl] phosphate
   44    46     1     0     0
SMALL
USER_CHARGES

@<TRIPOS>ATOM
      1 PG         -6.9050    3.2923   -0.7298 P.3       1 ATP         1.4221
      2 O1G        -6.3176    4.6812   -0.9568 O.co2     1 ATP        -0.9341
      3 O2G        -7.0994    2.4751   -2.0023 O.co2     1 ATP        -0.9341
      4 O3G        -8.1028    3.2677    0.2144 O.co2     1 ATP        -0.9341
      5 PB         -5.0251    2.7784    1.5431 P.3       1 ATP         1.6363
      6 O1B        -5.9531    3.6276    2.3828 O.co2     1 ATP        -0.9021
      7 O2B        -4.4709    1.4747    2.0742 O.co2     1 ATP        -0.9021
      8 O3B        -5.7348    2.4837    0.1024 O.3       1 ATP        -0.7799
      9 PA         -2.5918    4.4091    1.8810 P.3       1 ATP         1.7141
     10 O1A        -3.0705    5.3907    2.9111 O.2       1 ATP        -0.8703
     11 O2A        -1.6426    5.0478    0.7371 O.3       1 ATP        -0.8196
     12 O3A        -3.7797    3.7043    1.0384 O.3       1 ATP        -0.7658
     13 O5'        -1.7333    3.1724    2.4738 O.3       1 ATP        -0.5841
     14 C5'        -0.8811    2.4285    1.6206 C.3       1 ATP         0.1451
     15 C4'        -0.1994    1.3333    2.4288 C.3       1 ATP         0.0896
     16 O4'        -1.1285    0.2356    2.5840 O.3       1 ATP        -0.3980
     17 C3'         1.0324    0.7610    1.7344 C.3       1 ATP         0.0854
     18 O3'         1.9175    0.2377    2.7247 O.3       1 ATP        -0.5883
     19 C2'         0.4468   -0.3802    0.9263 C.3       1 ATP         0.0574
     20 O2'         1.3993   -1.3703    0.5961 O.3       1 ATP        -0.6005
     21 C1'        -0.6159   -0.9100    1.8769 C.3       1 ATP         0.4284
     22 N9         -1.7127   -1.6108    1.2130 N.pl3     1 ATP        -0.6877
     23 C8         -2.8641   -1.0399    0.7392 C.ar      1 ATP         0.5830
     24 N7         -3.6659   -1.9257    0.1858 N.2       1 ATP        -0.5778
     25 C5         -3.0053   -3.1223    0.3069 C.ar      1 ATP        -0.1986
     26 C6         -3.3321   -4.4178   -0.0813 C.ar      1 ATP         0.7073
     27 N6         -4.5476   -4.6866   -0.7335 N.pl3     1 ATP        -0.9340
     28 N1         -2.4608   -5.4225    0.1773 N.ar      1 ATP        -0.8111
     29 C2         -1.3053   -5.1020    0.8081 C.ar      1 ATP         0.6446
     30 N3         -0.8788   -3.8921    1.2315 N.ar      1 ATP        -0.7095
     31 C4         -1.7870   -2.9477    0.9438 C.ar      1 ATP         0.5640
     32 HOA2       -0.8012    5.4759    1.0033 H         1 ATP         0.4759
     33 H5'1       -1.4792    1.9919    0.8140 H         1 ATP         0.0806
     34 H5'2       -0.1359    3.1032    1.1865 H         1 ATP         0.0806
     35 H4'         0.0402    1.7079    3.4342 H         1 ATP         0.1213
     36 H3'         1.5907    1.4859    1.1353 H         1 ATP         0.1208
     37 HO3'        2.1521    0.9800    3.3017 H         1 ATP         0.3965
     38 H2'        -0.0017    0.0018    0.0005 H         1 ATP         0.0768
     39 HO2'        0.9369   -2.0558    0.0825 H         1 ATP         0.4074
     40 H1'        -0.1998   -1.6319    2.6178 H         1 ATP         0.0935
     41 H8         -3.0609    0.0200    0.8250 H         1 ATP         0.1424
     42 HN61       -5.2046   -3.9433   -0.8775 H         1 ATP         0.4144
     43 HN62       -4.7849   -5.6332   -0.9625 H         1 ATP         0.4144
     44 H2         -0.6318   -5.9307    0.9993 H         1 ATP         0.0297
@<TRIPOS>BOND
     1    1    2 2
     2    1    3 1
     3    1    4 1
     4    1    8 1
     5    5    6 2
     6    5    7 1
     7    5    8 1
     8    5   12 1
     9    9   10 2
    10    9   11 1
    11    9   12 1
    12    9   13 1
    13   11   32 1
    14   13   14 1
    15   14   15 1
    16   14   33 1
    17   14   34 1
    18   15   16 1
    19   15   17 1
    20   15   35 1
    21   16   21 1
    22   17   18 1
    23   17   19 1
    24   17   36 1
    25   18   37 1
    26   19   20 1
    27   19   21 1
    28   19   38 1
    29   20   39 1
    30   21   22 1
    31   21   40 1
    32   22   23 ar
    33   22   31 ar
    34   23   24 ar
    35   23   41 1
    36   24   25 ar
    37   25   26 ar
    38   25   31 ar
    39   26   27 1
    40   26   28 ar
    41   27   42 1
    42   27   43 1
    43   28   29 ar
    44   29   30 ar
    45   29   44 1
    46   30   31 ar
@<TRIPOS>SUBSTRUCTURE
     1 ATP         1 GROUP 0 A     ****
@<TRIPOS>MOLECULE
[[[5-(6-aminopurin-9-yl)-3,4-dihydroxy-tetrahydrofuran-2-yl]methoxy-hydroxy-phosphoryl]oxy-oxido-phosphoryl] phosphate
   44    46     1     0     0
SMALL
USER_CHARGES

@<TRIPOS>ATOM
      1 PG         -5.3533    6.2653   -0.6680 P.3       1 ATP         1.4221
      2 O1G        -5.1399    7.6242   -0.0097 O.co2     1 ATP        -0.9341
      3 O2G        -5.6945    6.3314   -2.1527 O.co2     1 ATP        -0.9341
      4 O3G        -6.2392    5.3160    0.1322 O.co2     1 ATP        -0.9341
      5 PB         -2.8916    5.1587    0.6282 P.3       1 ATP         1.6363
      6 O1B        -2.4116    6.4300    1.2923 O.co2     1 ATP        -0.9021
      7 O2B        -3.5623    4.0671    1.4327 O.co2     1 ATP        -0.9021
      8 O3B        -3.8697    5.5494   -0.6196 O.3       1 ATP        -0.7799
      9 PA         -0.0721    4.4467    0.1409 P.3       1 ATP         1.7141
     10 O1A         0.5714    5.7955    0.2838 O.2       1 ATP        -0.8703
     11 O2A         0.5439    3.5327   -1.0435 O.3       1 ATP        -0.8196
     12 O3A        -1.6517    4.5020   -0.2051 O.3       1 ATP        -0.7658
     13 O5'         0.0166    3.5128    1.4591 O.3       1 ATP        -0.5841
     14 C5'        -0.8811    2.4285    1.6206 C.3       1 ATP         0.1451
     15 C4'        -0.1994    1.3333    2.4288 C.3       1 ATP         0.0896
     16 O4'        -1.1285    0.2356    2.5840 O.3       1 ATP        -0.3980
     17 C3'         1.0324    0.7610    1.7344 C.3       1 ATP         0.0854
     18 O3'         1.9175    0.2377    2.7247 O.3       1 ATP        -0.5883
     19 C2'         0.4468   -0.3802    0.9263 C.3       1 ATP         0.0574
     20 O2'         1.3993   -1.3703    0.5961 O.3       1 ATP        -0.6005
     21 C1'        -0.6159   -0.9100    1.8769 C.3       1 ATP         0.4284
     22 N9         -1.7127   -1.6108    1.2130 N.pl3     1 ATP        -0.6877
     23 C8         -2.8641   -1.0399    0.7392 C.ar      1 ATP         0.5830
     24 N7         -3.6659   -1.9257    0.1858 N.2       1 ATP        -0.5778
     25 C5         -3.0053   -3.1223    0.3069 C.ar      1 ATP        -0.1986
     26 C6         -3.3321   -4.4178   -0.0813 C.ar      1 ATP         0.7073
     27 N6         -4.5476   -4.6866   -0.7335 N.pl3     1 ATP        -0.9340
     28 N1         -2.4608   -5.4225    0.1773 N.ar      1 ATP        -0.8111
     29 C2         -1.3053   -5.1020    0.8081 C.ar      1 ATP         0.6446
     30 N3         -0.8788   -3.8921    1.2315 N.ar      1 ATP        -0.7095
     31 C4         -1.7870   -2.9477    0.9438 C.ar      1 ATP         0.5640
     32 HOA2        1.4943    3.2922   -1.0117 H         1 ATP         0.4759
     33 H5'1       -1.7777    2.7838    2.1390 H         1 ATP         0.0806
     34 H5'2       -1.1661    2.0530    0.6323 H         1 ATP         0.0806
     35 H4'         0.0402    1.7079    3.4342 H         1 ATP         0.1213
     36 H3'         1.5907    1.4859    1.1353 H         1 ATP         0.1208
     37 HO3'        2.6839   -0.1150    2.2479 H         1 ATP         0.3965
     38 H2'        -0.0017    0.0018    0.0005 H         1 ATP         0.0768
     39 HO2'        2.0953   -0.9375    0.0709 H         1 ATP         0.4074
     40 H1'        -0.1998   -1.6319    2.6178 H         1 ATP         0.0935
     41 H8         -3.0609    0.0200    0.8250 H         1 ATP         0.1424
     42 HN61       -5.2046   -3.9433   -0.8775 H         1 ATP         0.4144
     43 HN62       -4.7849   -5.6332   -0.9625 H         1 ATP         0.4144
     44 H2         -0.6318   -5.9307    0.9993 H         1 ATP         0.0297
@<TRIPOS>BOND
     1    1    2 2
     2    1    3 1
     3    1    4 1
     4    1    8 1
     5    5    6 2
     6    5    7 1
     7    5    8 1
     8    5   12 1
     9    9   10 2
    10    9   11 1
    11    9   12 1
    12    9   13 1
    13   11   32 1
    14   13   14 1
    15   14   15 1
    16   14   33 1
    17   14   34 1
    18   15   16 1
    19   15   17 1
    20   15   35 1
    21   16   21 1
    22   17   18 1
    23   17   19 1
    24   17   36 1
    25   18   37 1
    26   19   20 1
    27   19   21 1
    28   19   38 1
    29   20   39 1
    30   21   22 1
    31   21   40 1
    32   22   23 ar
    33   22   31 ar
    34   23   24 ar
    35   23   41 1
    36   24   25 ar
    37   25   26 ar
    38   25   31 ar
    39   26   27 1
    40   26   28 ar
    41   27   42 1
    42   27   43 1
    43   28   29 ar
    44   29   30 ar
    45   29   44 1
    46   30   31 ar
@<TRIPOS>SUBSTRUCTURE
     1 ATP         1 GROUP 0 A     ****
@<TRIPOS>MOLECULE
[[[5-(6-aminopurin-9-yl)-3,4-dihydroxy-tetrahydrofuran-2-yl]methoxy-hydroxy-phosphoryl]oxy-oxido-phosphoryl] phosphate
   44    46     1     0     0
SMALL
USER_CHARGES

@<TRIPOS>ATOM
      1 PG         -4.7211    5.2472   -2.9852 P.3       1 ATP         1.4221
      2 O1G        -6.1736    5.0545   -2.5621 O.co2     1 ATP        -0.9341
      3 O2G        -4.3947    6.6458   -3.4972 O.co2     1 ATP        -0.9341
      4 O3G        -4.1695    4.1219   -3.8546 O.co2     1 ATP        -0.9341
      5 PB         -3.7326    3.8965   -0.5027 P.3       1 ATP         1.6363
      6 O1B        -5.0692    3.6951    0.1760 O.co2     1 ATP        -0.9021
      7 O2B        -3.0196    2.7427   -1.1727 O.co2     1 ATP        -0.9021
      8 O3B        -3.8651    5.1134   -1.5833 O.3       1 ATP        -0.7799
      9 PA         -2.5512    4.3890    2.1537 P.3       1 ATP         1.7141
     10 O1A        -3.7881    4.7198    2.9376 O.2       1 ATP        -0.8703
     11 O2A        -1.2598    5.2885    2.5287 O.3       1 ATP        -0.8196
     12 O3A        -2.7068    4.5958    0.5565 O.3       1 ATP        -0.7658
     13 O5'        -2.0394    2.8623    2.3117 O.3       1 ATP        -0.5841
     14 C5'        -0.8811    2.4285    1.6206 C.3       1 ATP         0.1451
     15 C4'        -0.1994    1.3333    2.4288 C.3       1 ATP         0.0896
     16 O4'        -1.1285    0.2356    2.5840 O.3       1 ATP        -0.3980
     17 C3'         1.0324    0.7610    1.7344 C.3       1 ATP         0.0854
     18 O3'         1.9175    0.2377    2.7247 O.3       1 ATP        -0.5883
     19 C2'         0.4468   -0.3802    0.9263 C.3       1 ATP         0.0574
     20 O2'         1.3993   -1.3703    0.5961 O.3       1 ATP        -0.6005
     21 C1'        -0.6159   -0.9100    1.8769 C.3       1 ATP         0.4284
     22 N9         -1.7127   -1.6108    1.2130 N.pl3     1 ATP        -0.6877
     23 C8         -1.7712   -2.9546    0.9544 C.ar      1 ATP         0.5830
     24 N7         -2.8883   -3.2948    0.3462 N.2       1 ATP        -0.5778
     25 C5         -3.5834   -2.1202    0.2043 C.ar      1 ATP        -0.1986
     26 C6         -4.8225   -1.8251   -0.3554 C.ar      1 ATP         0.7073
     27 N6         -5.6154   -2.8394   -0.9189 N.pl3     1 ATP        -0.9340
     28 N1         -5.2589   -0.5425   -0.3507 N.ar      1 ATP        -0.8111
     29 C2         -4.4510    0.3913    0.2069 C.ar      1 ATP         0.6446
     30 N3         -3.2368    0.2296    0.7767 N.ar      1 ATP        -0.7095
     31 C4         -2.8684   -1.0596    0.7376 C.ar      1 ATP         0.5640
     32 HOA2       -0.9184    5.2684    3.4480 H         1 ATP         0.4759
     33 H5'1       -1.1757    2.0497    0.6364 H         1 ATP         0.0806
     34 H5'2       -0.2069    3.2809    1.4872 H         1 ATP         0.0806
     35 H4'         0.0402    1.7079    3.4342 H         1 ATP         0.1213
     36 H3'         1.5907    1.4859    1.1353 H         1 ATP         0.1208
     37 HO3'        2.1521    0.9800    3.3017 H         1 ATP         0.3965
     38 H2'        -0.0017    0.0018    0.0005 H         1 ATP         0.0768
     39 HO2'        0.9369   -2.0558    0.0825 H         1 ATP         0.4074
     40 H1'        -0.1998   -1.6319    2.6178 H         1 ATP         0.0935
     41 H8         -0.9745   -3.6312    1.2318 H         1 ATP         0.1424
     42 HN61       -5.2619   -3.7766   -0.9586 H         1 ATP         0.4144
     43 HN62       -6.4834   -2.5990   -1.3590 H         1 ATP         0.4144
     44 H2         -4.8317    1.4071    0.1930 H         1 ATP         0.0297
@<TRIPOS>BOND
     1    1    2 2
     2    1    3 1
     3    1    4 1
     4    1    8 1
     5    5    6 2
     6    5    7 1
     7    5    8 1
     8    5   12 1
     9    9   10 2
    10    9   11 1
    11    9   12 1
    12    9   13 1
    13   11   32 1
    14   13   14 1
    15   14   15 1
    16   14   33 1
    17   14   34 1
    18   15   16 1
    19   15   17 1
    20   15   35 1
    21   16   21 1
    22   17   18 1
    23   17   19 1
    24   17   36 1
    25   18   37 1
    26   19   20 1
    27   19   21 1
    28   19   38 1
    29   20   39 1
    30   21   22 1
    31   21   40 1
    32   22   23 ar
    33   22   31 ar
    34   23   24 ar
    35   23   41 1
    36   24   25 ar
    37   25   26 ar
    38   25   31 ar
    39   26   27 1
    40   26   28 ar
    41   27   42 1
    42   27   43 1
    43   28   29 ar
    44   29   30 ar
    45   29   44 1
    46   30   31 ar
@<TRIPOS>SUBSTRUCTURE
     1 ATP         1 GROUP 0 A     ****
@<TRIPOS>MOLECULE
[[[5-(6-aminopurin-9-yl)-3,4-dihydroxy-tetrahydrofuran-2-yl]methoxy-hydroxy-phosphoryl]oxy-oxido-phosphoryl] phosphate
   44    46     1     0     0
SMALL
USER_CHARGES

@<TRIPOS>ATOM
      1 PG         -5.1694    2.2905   -3.2177 P.3       1 ATP         1.4221
      2 O1G        -6.1460    3.4589   -3.1352 O.co2     1 ATP        -0.9341
      3 O2G        -4.2122    2.3524   -4.4029 O.co2     1 ATP        -0.9341
      4 O3G        -5.8124    0.9233   -3.0080 O.co2     1 ATP        -0.9341
      5 PB         -4.5348    2.5078   -0.2997 P.3       1 ATP         1.6363
      6 O1B        -5.8576    3.2108   -0.0905 O.co2     1 ATP        -0.9021
      7 O2B        -4.2912    1.1260    0.2660 O.co2     1 ATP        -0.9021
      8 O3B        -4.2000    2.4731   -1.8975 O.3       1 ATP        -0.7799
      9 PA         -2.9678    4.0282    1.6820 P.3       1 ATP         1.7141
     10 O1A        -4.1634    4.3948    2.5127 O.2       1 ATP        -0.8703
     11 O2A        -1.9459    5.2509    1.4023 O.3       1 ATP        -0.8196
     12 O3A        -3.3330    3.4923    0.1996 O.3       1 ATP        -0.7658
     13 O5'        -2.0394    2.8623    2.3117 O.3       1 ATP        -0.5841
     14 C5'        -0.8811    2.4285    1.6206 C.3       1 ATP         0.1451
     15 C4'        -0.1994    1.3333    2.4288 C.3       1 ATP         0.0896
     16 O4'        -1.1285    0.2356    2.5840 O.3       1 ATP        -0.3980
     17 C3'         1.0324    0.7610    1.7344 C.3       1 ATP         0.0854
     18 O3'         1.9175    0.2377    2.7247 O.3       1 ATP        -0.5883
     19 C2'         0.4468   -0.3802    0.9263 C.3       1 ATP         0.0574
     20 O2'         1.3993   -1.3703    0.5961 O.3       1 ATP        -0.6005
     21 C1'        -0.6159   -0.9100    1.8769 C.3       1 ATP         0.4284
     22 N9         -1.7127   -1.6108    1.2130 N.pl3     1 ATP        -0.6877
     23 C8         -2.5476   -1.0844    0.2632 C.ar      1 ATP         0.5830
     24 N7         -3.4391   -1.9591   -0.1536 N.2       1 ATP        -0.5778
     25 C5         -3.1701   -3.1016    0.5574 C.ar      1 ATP        -0.1986
     26 C6         -3.7593   -4.3620    0.5656 C.ar      1 ATP         0.7073
     27 N6         -4.8512   -4.6493   -0.2712 N.pl3     1 ATP        -0.9340
     28 N1         -3.2659   -5.3144    1.3932 N.ar      1 ATP        -0.8111
     29 C2         -2.2122   -4.9785    2.1759 C.ar      1 ATP         0.6446
     30 N3         -1.5595   -3.7985    2.2572 N.ar      1 ATP        -0.7095
     31 C4         -2.0986   -2.9054    1.4140 C.ar      1 ATP         0.5640
     32 HOA2       -1.5225    5.6993    2.1651 H         1 ATP         0.4759
     33 H5'1       -1.1757    2.0497    0.6364 H         1 ATP         0.0806
     34 H5'2       -0.2069    3.2809    1.4872 H         1 ATP         0.0806
     35 H4'         0.0402    1.7079    3.4342 H         1 ATP         0.1213
     36 H3'         1.5907    1.4859    1.1353 H         1 ATP         0.1208
     37 HO3'        2.1521    0.9800    3.3017 H         1 ATP         0.3965
     38 H2'        -0.0017    0.0018    0.0005 H         1 ATP         0.0768
     39 HO2'        0.9369   -2.0558    0.0825 H         1 ATP         0.4074
     40 H1'        -0.1998   -1.6319    2.6178 H         1 ATP         0.0935
     41 H8         -2.4576   -0.0639   -0.0831 H         1 ATP         0.1424
     42 HN61       -5.2371   -3.9234   -0.8448 H         1 ATP         0.4144
     43 HN62       -5.2909   -5.5485   -0.2160 H         1 ATP         0.4144
     44 H2         -1.8433   -5.7650    2.8259 H         1 ATP         0.0297
@<TRIPOS>BOND
     1    1    2 2
     2    1    3 1
     3    1    4 1
     4    1    8 1
     5    5    6 2
     6    5    7 1
     7    5    8 1
     8    5   12 1
     9    9   10 2
    10    9   11 1
    11    9   12 1
    12    9   13 1
    13   11   32 1
    14   13   14 1
    15   14   15 1
    16   14   33 1
    17   14   34 1
    18   15   16 1
    19   15   17 1
    20   15   35 1
    21   16   21 1
    22   17   18 1
    23   17   19 1
    24   17   36 1
    25   18   37 1
    26   19   20 1
    27   19   21 1
    28   19   38 1
    29   20   39 1
    30   21   22 1
    31   21   40 1
    32   22   23 ar
    33   22   31 ar
    34   23   24 ar
    35   23   41 1
    36   24   25 ar
    37   25   26 ar
    38   25   31 ar
    39   26   27 1
    40   26   28 ar
    41   27   42 1
    42   27   43 1
    43   28   29 ar
    44   29   30 ar
    45   29   44 1
    46   30   31 ar
@<TRIPOS>SUBSTRUCTURE
     1 ATP         1 GROUP 0 A     ****
@<TRIPOS>MOLECULE
[[[5-(6-aminopurin-9-yl)-3,4-dihydroxy-tetrahydrofuran-2-yl]methoxy-hydroxy-phosphoryl]oxy-oxido-phosphoryl] phosphate
   44    46     1     0     0
SMALL
USER_CHARGES

@<TRIPOS>ATOM
      1 PG         -5.7462    3.8469   -1.1196 P.3       1 ATP         1.4221
      2 O1G        -5.6956    2.4391   -0.5354 O.co2     1 ATP        -0.9341
      3 O2G        -6.8694    4.7178   -0.5675 O.co2     1 ATP        -0.9341
      4 O3G        -5.6081    3.8982   -2.6378 O.co2     1 ATP        -0.9341
      5 PB         -2.7908    4.1837   -0.7780 P.3       1 ATP         1.6363
      6 O1B        -2.6458    2.6782   -0.7717 O.co2     1 ATP        -0.9021
      7 O2B        -2.2440    5.0123   -1.9196 O.co2     1 ATP        -0.9021
      8 O3B        -4.3657    4.5652   -0.5771 O.3       1 ATP        -0.7799
      9 PA         -2.5512    4.3890    2.1537 P.3       1 ATP         1.7141
     10 O1A        -3.9895    4.6094    2.5232 O.2       1 ATP        -0.8703
     11 O2A        -1.4965    5.2598    3.0178 O.3       1 ATP        -0.8196
     12 O3A        -2.1965    4.7737    0.6226 O.3       1 ATP        -0.7658
     13 O5'        -2.0394    2.8623    2.3117 O.3       1 ATP        -0.5841
     14 C5'        -0.8811    2.4285    1.6206 C.3       1 ATP         0.1451
     15 C4'        -0.1994    1.3333    2.4288 C.3       1 ATP         0.0896
     16 O4'        -1.1285    0.2356    2.5840 O.3       1 ATP        -0.3980
     17 C3'         1.0324    0.7610    1.7344 C.3       1 ATP         0.0854
     18 O3'         1.9175    0.2377    2.7247 O.3       1 ATP        -0.5883
     19 C2'         0.4468   -0.3802    0.9263 C.3       1 ATP         0.0574
     20 O2'         1.3993   -1.3703    0.5961 O.3       1 ATP        -0.6005
     21 C1'        -0.6159   -0.9100    1.8769 C.3       1 ATP         0.4284
     22 N9         -1.7127   -1.6108    1.2130 N.pl3     1 ATP        -0.6877
     23 C8         -2.8641   -1.0399    0.7392 C.ar      1 ATP         0.5830
     24 N7         -3.6659   -1.9257    0.1858 N.2       1 ATP        -0.5778
     25 C5         -3.0053   -3.1223    0.3069 C.ar      1 ATP        -0.1986
     26 C6         -3.3321   -4.4178   -0.0813 C.ar      1 ATP         0.7073
     27 N6         -4.5476   -4.6866   -0.7335 N.pl3     1 ATP        -0.9340
     28 N1         -2.4608   -5.4225    0.1773 N.ar      1 ATP        -0.8111
     29 C2         -1.3053   -5.1020    0.8081 C.ar      1 ATP         0.6446
     30 N3         -0.8788   -3.8921    1.2315 N.ar      1 ATP        -0.7095
     31 C4         -1.7870   -2.9477    0.9438 C.ar      1 ATP         0.5640
     32 HOA2       -1.4675    5.1405    3.9909 H         1 ATP         0.4759
     33 H5'1       -1.1757    2.0497    0.6364 H         1 ATP         0.0806
     34 H5'2       -0.2069    3.2809    1.4872 H         1 ATP         0.0806
     35 H4'         0.0402    1.7079    3.4342 H         1 ATP         0.1213
     36 H3'         1.5907    1.4859    1.1353 H         1 ATP         0.1208
     37 HO3'        2.1521    0.9800    3.3017 H         1 ATP         0.3965
     38 H2'        -0.0017    0.0018    0.0005 H         1 ATP         0.0768
     39 HO2'        0.9369   -2.0558    0.0825 H         1 ATP         0.4074
     40 H1'        -0.1998   -1.6319    2.6178 H         1 ATP         0.0935
     41 H8         -3.0609    0.0200    0.8250 H         1 ATP         0.1424
     42 HN61       -5.2046   -3.9433   -0.8775 H         1 ATP         0.4144
     43 HN62       -4.7849   -5.6332   -0.9625 H         1 ATP         0.4144
     44 H2         -0.6318   -5.9307    0.9993 H         1 ATP         0.0297
@<TRIPOS>BOND
     1    1    2 2
     2    1    3 1
     3    1    4 1
     4    1    8 1
     5    5    6 2
     6    5    7 1
     7    5    8 1
     8    5   12 1
     9    9   10 2
    10    9   11 1
    11    9   12 1
    12    9   13 1
    13   11   32 1
    14   13   14 1
    15   14   15 1
    16   14   33 1
    17   14   34 1
    18   15   16 1
    19   15   17 1
    20   15   35 1
    21   16   21 1
    22   17   18 1
    23   17   19 1
    24   17   36 1
    25   18   37 1
    26   19   20 1
    27   19   21 1
    28   19   38 1
    29   20   39 1
    30   21   22 1
    31   21   40 1
    32   22   23 ar
    33   22   31 ar
    34   23   24 ar
    35   23   41 1
    36   24   25 ar
    37   25   26 ar
    38   25   31 ar
    39   26   27 1
    40   26   28 ar
    41   27   42 1
    42   27   43 1
    43   28   29 ar
    44   29   30 ar
    45   29   44 1
    46   30   31 ar
@<TRIPOS>SUBSTRUCTURE
     1 ATP         1 GROUP 0 A     ****
@<TRIPOS>MOLECULE
[[[5-(6-aminopurin-9-yl)-3,4-dihydroxy-tetrahydrofuran-2-yl]methoxy-hydroxy-phosphoryl]oxy-oxido-phosphoryl] phosphate
   44    46     1     0     0
SMALL
USER_CHARGES

@<TRIPOS>ATOM
      1 PG         -2.0630    7.7887   -0.5383 P.3       1 ATP         1.4221
      2 O1G        -3.3755    7.9098   -1.3052 O.co2     1 ATP        -0.9341
      3 O2G        -1.6411    9.0588    0.1924 O.co2     1 ATP        -0.9341
      4 O3G        -0.9395    7.1213   -1.3249 O.co2     1 ATP        -0.9341
      5 PB         -2.8916    5.1587    0.6282 P.3       1 ATP         1.6363
      6 O1B        -2.8791    4.6046    2.0354 O.co2     1 ATP        -0.9021
      7 O2B        -4.1383    5.0835   -0.2255 O.co2     1 ATP        -0.9021
      8 O3B        -2.3900    6.7121    0.6658 O.3       1 ATP        -0.7799
      9 PA         -0.0721    4.4467    0.1409 P.3       1 ATP         1.7141
     10 O1A         0.5714    5.7955    0.2838 O.2       1 ATP        -0.8703
     11 O2A         0.5439    3.5327   -1.0435 O.3       1 ATP        -0.8196
     12 O3A        -1.6517    4.5020   -0.2051 O.3       1 ATP        -0.7658
     13 O5'         0.0166    3.5128    1.4591 O.3       1 ATP        -0.5841
     14 C5'        -0.8811    2.4285    1.6206 C.3       1 ATP         0.1451
     15 C4'        -0.1994    1.3333    2.4288 C.3       1 ATP         0.0896
     16 O4'        -1.1285    0.2356    2.5840 O.3       1 ATP        -0.3980
     17 C3'         1.0324    0.7610    1.7344 C.3       1 ATP         0.0854
     18 O3'         1.9175    0.2377    2.7247 O.3       1 ATP        -0.5883
     19 C2'         0.4468   -0.3802    0.9263 C.3       1 ATP         0.0574
     20 O2'         1.3993   -1.3703    0.5961 O.3       1 ATP        -0.6005
     21 C1'        -0.6159   -0.9100    1.8769 C.3       1 ATP         0.4284
     22 N9         -1.7127   -1.6108    1.2130 N.pl3     1 ATP        -0.6877
     23 C8         -2.8641   -1.0399    0.7392 C.ar      1 ATP         0.5830
     24 N7         -3.6659   -1.9257    0.1858 N.2       1 ATP        -0.5778
     25 C5         -3.0053   -3.1223    0.3069 C.ar      1 ATP        -0.1986
     26 C6         -3.3321   -4.4178   -0.0813 C.ar      1 ATP         0.7073
     27 N6         -4.5476   -4.6866   -0.7335 N.pl3     1 ATP        -0.9340
     28 N1         -2.4608   -5.4225    0.1773 N.ar      1 ATP        -0.8111
     29 C2         -1.3053   -5.1020    0.8081 C.ar      1 ATP         0.6446
     30 N3         -0.8788   -3.8921    1.2315 N.ar      1 ATP        -0.7095
     31 C4         -1.7870   -2.9477    0.9438 C.ar      1 ATP         0.5640
     32 HOA2        1.4943    3.2922   -1.0117 H         1 ATP         0.4759
     33 H5'1       -1.7777    2.7838    2.1390 H         1 ATP         0.0806
     34 H5'2       -1.1661    2.0530    0.6323 H         1 ATP         0.0806
     35 H4'         0.0402    1.7079    3.4342 H         1 ATP         0.1213
     36 H3'         1.5907    1.4859    1.1353 H         1 ATP         0.1208
     37 HO3'        2.1521    0.9800    3.3017 H         1 ATP         0.3965
     38 H2'        -0.0017    0.0018    0.0005 H         1 ATP         0.0768
     39 HO2'        0.9369   -2.0558    0.0825 H         1 ATP         0.4074
     40 H1'        -0.1998   -1.6319    2.6178 H         1 ATP         0.0935
     41 H8         -3.0609    0.0200    0.8250 H         1 ATP         0.1424
     42 HN61       -5.2046   -3.9433   -0.8775 H         1 ATP         0.4144
     43 HN62       -4.7849   -5.6332   -0.9625 H         1 ATP         0.4144
     44 H2         -0.6318   -5.9307    0.9993 H         1 ATP         0.0297
@<TRIPOS>BOND
     1    1    2 2
     2    1    3 1
     3    1    4 1
     4    1    8 1
     5    5    6 2
     6    5    7 1
     7    5    8 1
     8    5   12 1
     9    9   10 2
    10    9   11 1
    11    9   12 1
    12    9   13 1
    13   11   32 1
    14   13   14 1
    15   14   15 1
    16   14   33 1
    17   14   34 1
    18   15   16 1
    19   15   17 1
    20   15   35 1
    21   16   21 1
    22   17   18 1
    23   17   19 1
    24   17   36 1
    25   18   37 1
    26   19   20 1
    27   19   21 1
    28   19   38 1
    29   20   39 1
    30   21   22 1
    31   21   40 1
    32   22   23 ar
    33   22   31 ar
    34   23   24 ar
    35   23   41 1
    36   24   25 ar
    37   25   26 ar
    38   25   31 ar
    39   26   27 1
    40   26   28 ar
    41   27   42 1
    42   27   43 1
    43   28   29 ar
    44   29   30 ar
    45   29   44 1
    46   30   31 ar
@<TRIPOS>SUBSTRUCTURE
     1 ATP         1 GROUP 0 A     ****
