@<TRIPOS>MOLECULE
[[[5-(6-amino-7,8-dihydropurin-8-ylium-9-yl)-3,4-dihydroxy-tetrahydrofuran-2-yl]methoxy-hydroxy-phosphoryl]oxy-hydroxy-phosphoryl] hydrogen phosphate
   47    49     1     0     0
SMALL
USER_CHARGES

@<TRIPOS>ATOM
      1 PG         -2.1912    0.4025   -4.0006 P.3       1 ATP         1.5449
      2 O1G        -1.4505    0.4378   -2.6822 O.co2     1 ATP        -0.8177
      3 O2G        -2.7938   -0.8860   -4.5151 O.co2     1 ATP        -0.8177
      4 O3G        -3.3568    1.5452   -3.9681 O.3       1 ATP        -0.7779
      5 PB          0.1563    0.5300   -5.8039 P.3       1 ATP         1.9141
      6 O1B         0.0917   -0.8070   -6.4815 O.2       1 ATP        -0.8754
      7 O2B         0.6127    1.7538   -6.7565 O.3       1 ATP        -0.8083
      8 O3B        -1.2329    1.0390   -5.1549 O.3       1 ATP        -0.8025
      9 PA          2.7564    0.3912   -4.4176 P.3       1 ATP         1.8015
     10 O1A         3.6045    1.2999   -5.2596 O.2       1 ATP        -0.8201
     11 O2A         2.9489   -1.1831   -4.7370 O.3       1 ATP        -0.8103
     12 O3A         1.1624    0.6216   -4.5439 O.3       1 ATP        -0.8038
     13 O5'         3.0190    0.5130   -2.8246 O.3       1 ATP        -0.5730
     14 C5'         2.2816   -0.2918   -1.9206 C.3       1 ATP         0.1929
     15 C4'         2.7248    0.0226   -0.4980 C.3       1 ATP         0.1044
     16 O4'         2.4697    1.4219   -0.2462 O.3       1 ATP        -0.4079
     17 C3'         1.9404   -0.7419    0.5596 C.3       1 ATP         0.1439
     18 O3'         2.7418   -0.8086    1.7389 O.3       1 ATP        -0.5593
     19 C2'         0.7477    0.1630    0.7858 C.3       1 ATP         0.0644
     20 O2'         0.1373   -0.0577    2.0407 O.3       1 ATP        -0.5595
     21 C1'         1.3733    1.5427    0.6747 C.3       1 ATP         0.3792
     22 N9          0.4520    2.5240    0.1767 N.pl3     1 ATP        -0.5557
     23 C8          0.1928    2.8484   -1.0815 C.ar      1 ATP         0.2849
     24 N7         -0.7248    3.8048   -1.2110 N.pl3     1 ATP        -0.5117
     25 C5         -1.0765    4.1129    0.0571 C.ar      1 ATP        -0.2787
     26 C6         -1.9614    5.0063    0.5851 C.ar      1 ATP         0.7736
     27 N6         -2.7145    5.8254   -0.2810 N.pl3     1 ATP        -0.9480
     28 N1         -2.1199    5.1113    1.9228 N.ar      1 ATP        -0.7442
     29 C2         -1.3522    4.2822    2.6839 C.ar      1 ATP         0.7202
     30 N3         -0.4501    3.3660    2.2638 N.ar      1 ATP        -0.6957
     31 C4         -0.3487    3.3198    0.9322 C.ar      1 ATP         0.6231
     32 HOG3       -3.9304    1.6499   -4.7569 H         1 ATP         0.4452
     33 HOB2        1.4929    1.7169   -7.1877 H         1 ATP         0.4969
     34 HOA2        2.7517   -1.5112   -5.6402 H         1 ATP         0.4779
     35 H5'1        1.2149   -0.0786   -2.0446 H         1 ATP         0.0280
     36 H5'2        2.4641   -1.3459   -2.1539 H         1 ATP         0.0280
     37 H4'         3.8049   -0.1388   -0.4009 H         1 ATP         0.2049
     38 H3'         1.6783   -1.7629    0.2715 H         1 ATP         0.1077
     39 HO3'        2.2232   -1.2979    2.3953 H         1 ATP         0.4255
     40 H2'        -0.0011    0.0027    0.0003 H         1 ATP         0.0584
     41 HO2'       -0.6141    0.5574    2.1082 H         1 ATP         0.4149
     42 H1'         1.7826    1.9024    1.6451 H         1 ATP         0.1459
     43 H8          0.6728    2.3873   -1.9272 H         1 ATP         0.2739
     44 HN61       -2.5537    5.7714   -1.2667 H         1 ATP         0.4605
     45 HN62       -3.3283    6.5126    0.1080 H         1 ATP         0.4605
     46 H2         -1.4818    4.3694    3.7565 H         1 ATP         0.0904
     47 H47        -1.0701    4.2005   -2.0743 H         1 ATP         0.5017
@<TRIPOS>BOND
     1    1    2 2
     2    1    3 1
     3    1    4 1
     4    1    8 1
     5    4   32 1
     6    5    6 2
     7    5    7 1
     8    5    8 1
     9    5   12 1
    10    7   33 1
    11    9   10 2
    12    9   11 1
    13    9   12 1
    14    9   13 1
    15   11   34 1
    16   13   14 1
    17   14   15 1
    18   14   35 1
    19   14   36 1
    20   15   16 1
    21   15   17 1
    22   15   37 1
    23   16   21 1
    24   17   18 1
    25   17   19 1
    26   17   38 1
    27   18   39 1
    28   19   20 1
    29   19   21 1
    30   19   40 1
    31   20   41 1
    32   21   22 1
    33   21   42 1
    34   22   23 ar
    35   22   31 ar
    36   23   24 ar
    37   23   43 1
    38   24   25 ar
    39   24   47 1
    40   25   26 ar
    41   25   31 ar
    42   26   27 1
    43   26   28 ar
    44   27   44 1
    45   27   45 1
    46   28   29 ar
    47   29   30 ar
    48   29   46 1
    49   30   31 ar
@<TRIPOS>SUBSTRUCTURE
     1 ATP         1 GROUP 0 A     ****
@<TRIPOS>MOLECULE
[[[5-(6-amino-7,8-dihydropurin-8-ylium-9-yl)-3,4-dihydroxy-tetrahydrofuran-2-yl]methoxy-hydroxy-phosphoryl]oxy-hydroxy-phosphoryl] hydrogen phosphate
   47    49     1     0     0
SMALL
USER_CHARGES

@<TRIPOS>ATOM
      1 PG         -0.5917   -1.9450   -7.2506 P.3       1 ATP         1.5449
      2 O1G        -0.2097   -1.5014   -8.6454 O.co2     1 ATP        -0.8177
      3 O2G        -2.0433   -2.0146   -6.8314 O.co2     1 ATP        -0.8177
      4 O3G         0.1030   -3.3941   -6.9620 O.3       1 ATP        -0.7779
      5 PB          0.1563    0.5300   -5.8039 P.3       1 ATP         1.9141
      6 O1B         0.4562    1.4657   -6.9377 O.2       1 ATP        -0.8754
      7 O2B        -1.3096    0.7074   -5.1456 O.3       1 ATP        -0.8083
      8 O3B         0.2302   -1.0412   -6.1720 O.3       1 ATP        -0.8025
      9 PA          2.7564    0.3912   -4.4176 P.3       1 ATP         1.8015
     10 O1A         3.6045    1.2999   -5.2596 O.2       1 ATP        -0.8201
     11 O2A         2.9489   -1.1831   -4.7370 O.3       1 ATP        -0.8103
     12 O3A         1.1624    0.6216   -4.5439 O.3       1 ATP        -0.8038
     13 O5'         3.0190    0.5130   -2.8246 O.3       1 ATP        -0.5730
     14 C5'         2.2816   -0.2918   -1.9206 C.3       1 ATP         0.1929
     15 C4'         2.7248    0.0226   -0.4980 C.3       1 ATP         0.1044
     16 O4'         2.4697    1.4219   -0.2462 O.3       1 ATP        -0.4079
     17 C3'         1.9404   -0.7419    0.5596 C.3       1 ATP         0.1439
     18 O3'         2.7418   -0.8086    1.7389 O.3       1 ATP        -0.5593
     19 C2'         0.7477    0.1630    0.7858 C.3       1 ATP         0.0644
     20 O2'         0.1373   -0.0577    2.0407 O.3       1 ATP        -0.5595
     21 C1'         1.3733    1.5427    0.6747 C.3       1 ATP         0.3792
     22 N9          0.4520    2.5240    0.1767 N.pl3     1 ATP        -0.5557
     23 C8          0.1928    2.8484   -1.0815 C.ar      1 ATP         0.2849
     24 N7         -0.7248    3.8048   -1.2110 N.pl3     1 ATP        -0.5117
     25 C5         -1.0765    4.1129    0.0571 C.ar      1 ATP        -0.2787
     26 C6         -1.9614    5.0063    0.5851 C.ar      1 ATP         0.7736
     27 N6         -2.7145    5.8254   -0.2810 N.pl3     1 ATP        -0.9480
     28 N1         -2.1199    5.1113    1.9228 N.ar      1 ATP        -0.7442
     29 C2         -1.3522    4.2822    2.6839 C.ar      1 ATP         0.7202
     30 N3         -0.4501    3.3660    2.2638 N.ar      1 ATP        -0.6957
     31 C4         -0.3487    3.3198    0.9322 C.ar      1 ATP         0.6231
     32 HOG3       -0.0500   -3.8203   -6.0918 H         1 ATP         0.4452
     33 HOB2       -2.1018    0.5816   -5.7101 H         1 ATP         0.4969
     34 HOA2        2.7517   -1.5112   -5.6402 H         1 ATP         0.4779
     35 H5'1        1.2149   -0.0786   -2.0446 H         1 ATP         0.0280
     36 H5'2        2.4641   -1.3459   -2.1539 H         1 ATP         0.0280
     37 H4'         3.8049   -0.1388   -0.4009 H         1 ATP         0.2049
     38 H3'         1.6783   -1.7629    0.2715 H         1 ATP         0.1077
     39 HO3'        2.2232   -1.2979    2.3953 H         1 ATP         0.4255
     40 H2'        -0.0011    0.0027    0.0003 H         1 ATP         0.0584
     41 HO2'       -0.6141    0.5574    2.1082 H         1 ATP         0.4149
     42 H1'         1.7826    1.9024    1.6451 H         1 ATP         0.1459
     43 H8          0.6728    2.3873   -1.9272 H         1 ATP         0.2739
     44 HN61       -2.5537    5.7714   -1.2667 H         1 ATP         0.4605
     45 HN62       -3.3283    6.5126    0.1080 H         1 ATP         0.4605
     46 H2         -1.4818    4.3694    3.7565 H         1 ATP         0.0904
     47 H47        -1.0701    4.2005   -2.0743 H         1 ATP         0.5017
@<TRIPOS>BOND
     1    1    2 2
     2    1    3 1
     3    1    4 1
     4    1    8 1
     5    4   32 1
     6    5    6 2
     7    5    7 1
     8    5    8 1
     9    5   12 1
    10    7   33 1
    11    9   10 2
    12    9   11 1
    13    9   12 1
    14    9   13 1
    15   11   34 1
    16   13   14 1
    17   14   15 1
    18   14   35 1
    19   14   36 1
    20   15   16 1
    21   15   17 1
    22   15   37 1
    23   16   21 1
    24   17   18 1
    25   17   19 1
    26   17   38 1
    27   18   39 1
    28   19   20 1
    29   19   21 1
    30   19   40 1
    31   20   41 1
    32   21   22 1
    33   21   42 1
    34   22   23 ar
    35   22   31 ar
    36   23   24 ar
    37   23   43 1
    38   24   25 ar
    39   24   47 1
    40   25   26 ar
    41   25   31 ar
    42   26   27 1
    43   26   28 ar
    44   27   44 1
    45   27   45 1
    46   28   29 ar
    47   29   30 ar
    48   29   46 1
    49   30   31 ar
@<TRIPOS>SUBSTRUCTURE
     1 ATP         1 GROUP 0 A     ****
@<TRIPOS>MOLECULE
[[[5-(6-amino-7,8-dihydropurin-8-ylium-9-yl)-3,4-dihydroxy-tetrahydrofuran-2-yl]methoxy-hydroxy-phosphoryl]oxy-hydroxy-phosphoryl] hydrogen phosphate
   47    49     1     0     0
SMALL
USER_CHARGES

@<TRIPOS>ATOM
      1 PG         -2.2021    0.1705   -4.2861 P.3       1 ATP         1.5449
      2 O1G        -3.4982    0.8932   -3.9933 O.co2     1 ATP        -0.8177
      3 O2G        -1.4175   -0.4914   -3.1752 O.co2     1 ATP        -0.8177
      4 O3G        -2.4803   -0.9340   -5.4559 O.3       1 ATP        -0.7779
      5 PB          0.2167    0.9431   -5.8129 P.3       1 ATP         1.9141
      6 O1B         0.2292   -0.0870   -6.9036 O.2       1 ATP        -0.8754
      7 O2B         0.6713    2.4251   -6.2720 O.3       1 ATP        -0.8083
      8 O3B        -1.2168    1.1772   -5.1056 O.3       1 ATP        -0.8025
      9 PA          2.7564    0.3912   -4.4176 P.3       1 ATP         1.8015
     10 O1A         3.6045    1.2999   -5.2596 O.2       1 ATP        -0.8201
     11 O2A         2.9489   -1.1831   -4.7370 O.3       1 ATP        -0.8103
     12 O3A         1.1624    0.6216   -4.5439 O.3       1 ATP        -0.8038
     13 O5'         3.0190    0.5130   -2.8246 O.3       1 ATP        -0.5730
     14 C5'         2.2816   -0.2918   -1.9206 C.3       1 ATP         0.1929
     15 C4'         2.7248    0.0226   -0.4980 C.3       1 ATP         0.1044
     16 O4'         2.4697    1.4219   -0.2462 O.3       1 ATP        -0.4079
     17 C3'         1.9404   -0.7419    0.5596 C.3       1 ATP         0.1439
     18 O3'         2.7418   -0.8086    1.7389 O.3       1 ATP        -0.5593
     19 C2'         0.7477    0.1630    0.7858 C.3       1 ATP         0.0644
     20 O2'         0.1373   -0.0577    2.0407 O.3       1 ATP        -0.5595
     21 C1'         1.3733    1.5427    0.6747 C.3       1 ATP         0.3792
     22 N9          0.4520    2.5240    0.1767 N.pl3     1 ATP        -0.5557
     23 C8         -0.2172    2.5216   -0.9668 C.ar      1 ATP         0.2849
     24 N7         -1.0011    3.5855   -1.1321 N.pl3     1 ATP        -0.5117
     25 C5         -0.8184    4.3200   -0.0123 C.ar      1 ATP        -0.2787
     26 C6         -1.3349    5.5079    0.4144 C.ar      1 ATP         0.7736
     27 N6         -2.2567    6.1930   -0.4036 N.pl3     1 ATP        -0.9480
     28 N1         -0.9716    6.0291    1.6069 N.ar      1 ATP        -0.7442
     29 C2         -0.0765    5.3009    2.3312 C.ar      1 ATP         0.7202
     30 N3          0.4933    4.1191    2.0023 N.ar      1 ATP        -0.6957
     31 C4          0.0865    3.6675    0.8123 C.ar      1 ATP         0.6231
     32 HOG3       -1.7319   -1.4900   -5.7607 H         1 ATP         0.4452
     33 HOB2        1.5705    2.5522   -6.6426 H         1 ATP         0.4969
     34 HOA2        2.7517   -1.5112   -5.6402 H         1 ATP         0.4779
     35 H5'1        1.2149   -0.0786   -2.0446 H         1 ATP         0.0280
     36 H5'2        2.4641   -1.3459   -2.1539 H         1 ATP         0.0280
     37 H4'         3.8049   -0.1388   -0.4009 H         1 ATP         0.2049
     38 H3'         1.6783   -1.7629    0.2715 H         1 ATP         0.1077
     39 HO3'        2.2232   -1.2979    2.3953 H         1 ATP         0.4255
     40 H2'        -0.0011    0.0027    0.0003 H         1 ATP         0.0584
     41 HO2'       -0.6141    0.5574    2.1082 H         1 ATP         0.4149
     42 H1'         1.7826    1.9024    1.6451 H         1 ATP         0.1459
     43 H8         -0.1423    1.7373   -1.6999 H         1 ATP         0.2739
     44 HN61       -2.4811    5.8206   -1.3042 H         1 ATP         0.4605
     45 HN62       -2.5986    7.0863   -0.1113 H         1 ATP         0.4605
     46 H2          0.2128    5.7222    3.2871 H         1 ATP         0.0904
     47 H47        -1.5947    3.7835   -1.9255 H         1 ATP         0.5017
@<TRIPOS>BOND
     1    1    2 2
     2    1    3 1
     3    1    4 1
     4    1    8 1
     5    4   32 1
     6    5    6 2
     7    5    7 1
     8    5    8 1
     9    5   12 1
    10    7   33 1
    11    9   10 2
    12    9   11 1
    13    9   12 1
    14    9   13 1
    15   11   34 1
    16   13   14 1
    17   14   15 1
    18   14   35 1
    19   14   36 1
    20   15   16 1
    21   15   17 1
    22   15   37 1
    23   16   21 1
    24   17   18 1
    25   17   19 1
    26   17   38 1
    27   18   39 1
    28   19   20 1
    29   19   21 1
    30   19   40 1
    31   20   41 1
    32   21   22 1
    33   21   42 1
    34   22   23 ar
    35   22   31 ar
    36   23   24 ar
    37   23   43 1
    38   24   25 ar
    39   24   47 1
    40   25   26 ar
    41   25   31 ar
    42   26   27 1
    43   26   28 ar
    44   27   44 1
    45   27   45 1
    46   28   29 ar
    47   29   30 ar
    48   29   46 1
    49   30   31 ar
@<TRIPOS>SUBSTRUCTURE
     1 ATP         1 GROUP 0 A     ****
@<TRIPOS>MOLECULE
[[[5-(6-amino-7,8-dihydropurin-8-ylium-9-yl)-3,4-dihydroxy-tetrahydrofuran-2-yl]methoxy-hydroxy-phosphoryl]oxy-hydroxy-phosphoryl] hydrogen phosphate
   47    49     1     0     0
SMALL
USER_CHARGES

@<TRIPOS>ATOM
      1 PG          1.6019    1.1411   -6.6428 P.3       1 ATP         1.5449
      2 O1G         2.3522    1.4748   -5.3725 O.co2     1 ATP        -0.8177
      3 O2G         0.2115    1.6852   -6.8855 O.co2     1 ATP        -0.8177
      4 O3G         2.5441    1.5346   -7.9168 O.3       1 ATP        -0.7779
      5 PB          0.8617   -1.6483   -5.9723 P.3       1 ATP         1.9141
      6 O1B        -0.6335   -1.5548   -5.8917 O.2       1 ATP        -0.8754
      7 O2B         1.4230   -3.0123   -6.6342 O.3       1 ATP        -0.8083
      8 O3B         1.5782   -0.4781   -6.8251 O.3       1 ATP        -0.8025
      9 PA          1.5750   -2.4636   -3.2285 P.3       1 ATP         1.8015
     10 O1A         1.9420   -3.9067   -3.4205 O.2       1 ATP        -0.8201
     11 O2A         0.0757   -2.2276   -2.6680 O.3       1 ATP        -0.8103
     12 O3A         1.6402   -1.5518   -4.5606 O.3       1 ATP        -0.8038
     13 O5'         2.5233   -1.6623   -2.1893 O.3       1 ATP        -0.5730
     14 C5'         2.2816   -0.2918   -1.9206 C.3       1 ATP         0.1929
     15 C4'         2.7248    0.0226   -0.4980 C.3       1 ATP         0.1044
     16 O4'         2.4697    1.4219   -0.2462 O.3       1 ATP        -0.4079
     17 C3'         1.9404   -0.7419    0.5596 C.3       1 ATP         0.1439
     18 O3'         2.7418   -0.8086    1.7389 O.3       1 ATP        -0.5593
     19 C2'         0.7477    0.1630    0.7858 C.3       1 ATP         0.0644
     20 O2'         0.1373   -0.0577    2.0407 O.3       1 ATP        -0.5595
     21 C1'         1.3733    1.5427    0.6747 C.3       1 ATP         0.3792
     22 N9          0.4520    2.5240    0.1767 N.pl3     1 ATP        -0.5557
     23 C8          0.1928    2.8484   -1.0815 C.ar      1 ATP         0.2849
     24 N7         -0.7248    3.8048   -1.2110 N.pl3     1 ATP        -0.5117
     25 C5         -1.0765    4.1129    0.0571 C.ar      1 ATP        -0.2787
     26 C6         -1.9614    5.0063    0.5851 C.ar      1 ATP         0.7736
     27 N6         -2.7145    5.8254   -0.2810 N.pl3     1 ATP        -0.9480
     28 N1         -2.1199    5.1113    1.9228 N.ar      1 ATP        -0.7442
     29 C2         -1.3522    4.2822    2.6839 C.ar      1 ATP         0.7202
     30 N3         -0.4501    3.3660    2.2638 N.ar      1 ATP        -0.6957
     31 C4         -0.3487    3.3198    0.9322 C.ar      1 ATP         0.6231
     32 HOG3        2.1968    1.3775   -8.8207 H         1 ATP         0.4452
     33 HOB2        1.2017   -3.8701   -6.2134 H         1 ATP         0.4969
     34 HOA2       -0.1714   -2.6105   -1.7994 H         1 ATP         0.4779
     35 H5'1        2.8428    0.3149   -2.6387 H         1 ATP         0.0280
     36 H5'2        1.2124   -0.0897   -2.0417 H         1 ATP         0.0280
     37 H4'         3.8049   -0.1388   -0.4009 H         1 ATP         0.2049
     38 H3'         1.6783   -1.7629    0.2715 H         1 ATP         0.1077
     39 HO3'        2.2232   -1.2979    2.3953 H         1 ATP         0.4255
     40 H2'        -0.0011    0.0027    0.0003 H         1 ATP         0.0584
     41 HO2'       -0.6141    0.5574    2.1082 H         1 ATP         0.4149
     42 H1'         1.7826    1.9024    1.6451 H         1 ATP         0.1459
     43 H8          0.6728    2.3873   -1.9272 H         1 ATP         0.2739
     44 HN61       -2.5537    5.7714   -1.2667 H         1 ATP         0.4605
     45 HN62       -3.3283    6.5126    0.1080 H         1 ATP         0.4605
     46 H2         -1.4818    4.3694    3.7565 H         1 ATP         0.0904
     47 H47        -1.0701    4.2005   -2.0743 H         1 ATP         0.5017
@<TRIPOS>BOND
     1    1    2 2
     2    1    3 1
     3    1    4 1
     4    1    8 1
     5    4   32 1
     6    5    6 2
     7    5    7 1
     8    5    8 1
     9    5   12 1
    10    7   33 1
    11    9   10 2
    12    9   11 1
    13    9   12 1
    14    9   13 1
    15   11   34 1
    16   13   14 1
    17   14   15 1
    18   14   35 1
    19   14   36 1
    20   15   16 1
    21   15   17 1
    22   15   37 1
    23   16   21 1
    24   17   18 1
    25   17   19 1
    26   17   38 1
    27   18   39 1
    28   19   20 1
    29   19   21 1
    30   19   40 1
    31   20   41 1
    32   21   22 1
    33   21   42 1
    34   22   23 ar
    35   22   31 ar
    36   23   24 ar
    37   23   43 1
    38   24   25 ar
    39   24   47 1
    40   25   26 ar
    41   25   31 ar
    42   26   27 1
    43   26   28 ar
    44   27   44 1
    45   27   45 1
    46   28   29 ar
    47   29   30 ar
    48   29   46 1
    49   30   31 ar
@<TRIPOS>SUBSTRUCTURE
     1 ATP         1 GROUP 0 A     ****
@<TRIPOS>MOLECULE
[[[5-(6-amino-7,8-dihydropurin-8-ylium-9-yl)-3,4-dihydroxy-tetrahydrofuran-2-yl]methoxy-hydroxy-phosphoryl]oxy-hydroxy-phosphoryl] hydrogen phosphate
   47    49     1     0     0
SMALL
USER_CHARGES

@<TRIPOS>ATOM
      1 PG         -1.6071    1.5441   -4.4349 P.3       1 ATP         1.5449
      2 O1G        -2.5410    2.7302   -4.5301 O.co2     1 ATP        -0.8177
      3 O2G        -0.9786    1.1584   -3.1142 O.co2     1 ATP        -0.8177
      4 O3G        -2.3689    0.2373   -5.0496 O.3       1 ATP        -0.7779
      5 PB          0.7497    0.7223   -6.0312 P.3       1 ATP         1.9141
      6 O1B         0.2935   -0.5925   -6.5917 O.2       1 ATP        -0.8754
      7 O2B         1.6281    1.6253   -7.0444 O.3       1 ATP        -0.8083
      8 O3B        -0.4334    1.7128   -5.5529 O.3       1 ATP        -0.8025
      9 PA          3.0863   -0.0757   -4.4171 P.3       1 ATP         1.8015
     10 O1A         4.2268    0.4190   -5.2587 O.2       1 ATP        -0.8201
     11 O2A         2.7768   -1.6555   -4.5790 O.3       1 ATP        -0.8103
     12 O3A         1.6615    0.6308   -4.7014 O.3       1 ATP        -0.8038
     13 O5'         3.2874    0.1332   -2.8242 O.3       1 ATP        -0.5730
     14 C5'         2.2816   -0.2918   -1.9206 C.3       1 ATP         0.1929
     15 C4'         2.7248    0.0226   -0.4980 C.3       1 ATP         0.1044
     16 O4'         2.4697    1.4219   -0.2462 O.3       1 ATP        -0.4079
     17 C3'         1.9404   -0.7419    0.5596 C.3       1 ATP         0.1439
     18 O3'         2.7418   -0.8086    1.7389 O.3       1 ATP        -0.5593
     19 C2'         0.7477    0.1630    0.7858 C.3       1 ATP         0.0644
     20 O2'         0.1373   -0.0577    2.0407 O.3       1 ATP        -0.5595
     21 C1'         1.3733    1.5427    0.6747 C.3       1 ATP         0.3792
     22 N9          0.4520    2.5240    0.1767 N.pl3     1 ATP        -0.5557
     23 C8          0.5305    3.2394   -0.9358 C.ar      1 ATP         0.2849
     24 N7         -0.4966    4.0680   -1.1145 N.pl3     1 ATP        -0.5117
     25 C5         -1.2879    3.8664   -0.0375 C.ar      1 ATP        -0.2787
     26 C6         -2.4754    4.4084    0.3577 C.ar      1 ATP         0.7736
     27 N6         -3.0892    5.3882   -0.4495 N.pl3     1 ATP        -0.9480
     28 N1         -3.0632    4.0158    1.5092 N.ar      1 ATP        -0.7442
     29 C2         -2.4008    3.0654    2.2262 C.ar      1 ATP         0.7202
     30 N3         -1.2259    2.4663    1.9260 N.ar      1 ATP        -0.6957
     31 C4         -0.7062    2.9047    0.7757 C.ar      1 ATP         0.6231
     32 HOG3       -1.8915   -0.6195   -5.0601 H         1 ATP         0.4452
     33 HOB2        2.4712    1.2645   -7.3924 H         1 ATP         0.4969
     34 HOA2        3.4802   -2.3017   -4.3562 H         1 ATP         0.4779
     35 H5'1        1.3494    0.2323   -2.1552 H         1 ATP         0.0280
     36 H5'2        2.1260   -1.3686   -2.0436 H         1 ATP         0.0280
     37 H4'         3.8049   -0.1388   -0.4009 H         1 ATP         0.2049
     38 H3'         1.6783   -1.7629    0.2715 H         1 ATP         0.1077
     39 HO3'        2.2232   -1.2979    2.3953 H         1 ATP         0.4255
     40 H2'        -0.0011    0.0027    0.0003 H         1 ATP         0.0584
     41 HO2'       -0.1563   -0.9855    2.0596 H         1 ATP         0.4149
     42 H1'         1.7826    1.9024    1.6451 H         1 ATP         0.1459
     43 H8          1.3437    3.1645   -1.6367 H         1 ATP         0.2739
     44 HN61       -2.6210    5.7042   -1.2748 H         1 ATP         0.4605
     45 HN62       -3.9356    5.8187   -0.1356 H         1 ATP         0.4605
     46 H2         -2.8752    2.7532    3.1495 H         1 ATP         0.0904
     47 H47        -0.6372    4.7004   -1.8900 H         1 ATP         0.5017
@<TRIPOS>BOND
     1    1    2 2
     2    1    3 1
     3    1    4 1
     4    1    8 1
     5    4   32 1
     6    5    6 2
     7    5    7 1
     8    5    8 1
     9    5   12 1
    10    7   33 1
    11    9   10 2
    12    9   11 1
    13    9   12 1
    14    9   13 1
    15   11   34 1
    16   13   14 1
    17   14   15 1
    18   14   35 1
    19   14   36 1
    20   15   16 1
    21   15   17 1
    22   15   37 1
    23   16   21 1
    24   17   18 1
    25   17   19 1
    26   17   38 1
    27   18   39 1
    28   19   20 1
    29   19   21 1
    30   19   40 1
    31   20   41 1
    32   21   22 1
    33   21   42 1
    34   22   23 ar
    35   22   31 ar
    36   23   24 ar
    37   23   43 1
    38   24   25 ar
    39   24   47 1
    40   25   26 ar
    41   25   31 ar
    42   26   27 1
    43   26   28 ar
    44   27   44 1
    45   27   45 1
    46   28   29 ar
    47   29   30 ar
    48   29   46 1
    49   30   31 ar
@<TRIPOS>SUBSTRUCTURE
     1 ATP         1 GROUP 0 A     ****
@<TRIPOS>MOLECULE
[[[5-(6-amino-7,8-dihydropurin-8-ylium-9-yl)-3,4-dihydroxy-tetrahydrofuran-2-yl]methoxy-hydroxy-phosphoryl]oxy-hydroxy-phosphoryl] hydrogen phosphate
   47    49     1     0     0
SMALL
USER_CHARGES

@<TRIPOS>ATOM
      1 PG         -1.2650   -1.7041   -5.1208 P.3       1 ATP         1.5449
      2 O1G        -2.6658   -1.3896   -5.5972 O.co2     1 ATP        -0.8177
      3 O2G        -0.8435   -1.3966   -3.7011 O.co2     1 ATP        -0.8177
      4 O3G        -0.9582   -3.2786   -5.4250 O.3       1 ATP        -0.7779
      5 PB          1.4097   -1.1283   -6.2579 P.3       1 ATP         1.9141
      6 O1B         1.9474   -2.5105   -6.4844 O.2       1 ATP        -0.8754
      7 O2B         1.7926   -0.0536   -7.4033 O.3       1 ATP        -0.8083
      8 O3B        -0.1990   -1.0262   -6.1503 O.3       1 ATP        -0.8025
      9 PA          3.3392   -0.0290   -4.3163 P.3       1 ATP         1.8015
     10 O1A         4.1272    0.9231   -5.1687 O.2       1 ATP        -0.8201
     11 O2A         4.0576   -1.4591   -4.0783 O.3       1 ATP        -0.8103
     12 O3A         1.8781   -0.4177   -4.8854 O.3       1 ATP        -0.8038
     13 O5'         3.0190    0.5130   -2.8246 O.3       1 ATP        -0.5730
     14 C5'         2.2816   -0.2918   -1.9206 C.3       1 ATP         0.1929
     15 C4'         2.7248    0.0226   -0.4980 C.3       1 ATP         0.1044
     16 O4'         2.4697    1.4219   -0.2462 O.3       1 ATP        -0.4079
     17 C3'         1.9404   -0.7419    0.5596 C.3       1 ATP         0.1439
     18 O3'         2.7418   -0.8086    1.7389 O.3       1 ATP        -0.5593
     19 C2'         0.7477    0.1630    0.7858 C.3       1 ATP         0.0644
     20 O2'         0.1373   -0.0577    2.0407 O.3       1 ATP        -0.5595
     21 C1'         1.3733    1.5427    0.6747 C.3       1 ATP         0.3792
     22 N9          0.4520    2.5240    0.1767 N.pl3     1 ATP        -0.5557
     23 C8          0.1928    2.8484   -1.0815 C.ar      1 ATP         0.2849
     24 N7         -0.7248    3.8048   -1.2110 N.pl3     1 ATP        -0.5117
     25 C5         -1.0765    4.1129    0.0571 C.ar      1 ATP        -0.2787
     26 C6         -1.9614    5.0063    0.5851 C.ar      1 ATP         0.7736
     27 N6         -2.7145    5.8254   -0.2810 N.pl3     1 ATP        -0.9480
     28 N1         -2.1199    5.1113    1.9228 N.ar      1 ATP        -0.7442
     29 C2         -1.3522    4.2822    2.6839 C.ar      1 ATP         0.7202
     30 N3         -0.4501    3.3660    2.2638 N.ar      1 ATP        -0.6957
     31 C4         -0.3487    3.3198    0.9322 C.ar      1 ATP         0.6231
     32 HOG3       -0.0824   -3.6411   -5.1721 H         1 ATP         0.4452
     33 HOB2        2.7387    0.1372   -7.5780 H         1 ATP         0.4969
     34 HOA2        4.9345   -1.4819   -3.6394 H         1 ATP         0.4779
     35 H5'1        1.2149   -0.0786   -2.0446 H         1 ATP         0.0280
     36 H5'2        2.4641   -1.3459   -2.1539 H         1 ATP         0.0280
     37 H4'         3.8049   -0.1388   -0.4009 H         1 ATP         0.2049
     38 H3'         1.6783   -1.7629    0.2715 H         1 ATP         0.1077
     39 HO3'        2.2232   -1.2979    2.3953 H         1 ATP         0.4255
     40 H2'        -0.0011    0.0027    0.0003 H         1 ATP         0.0584
     41 HO2'       -0.1563   -0.9855    2.0596 H         1 ATP         0.4149
     42 H1'         1.7826    1.9024    1.6451 H         1 ATP         0.1459
     43 H8          0.6728    2.3873   -1.9272 H         1 ATP         0.2739
     44 HN61       -2.5537    5.7714   -1.2667 H         1 ATP         0.4605
     45 HN62       -3.3283    6.5126    0.1080 H         1 ATP         0.4605
     46 H2         -1.4818    4.3694    3.7565 H         1 ATP         0.0904
     47 H47        -1.0701    4.2005   -2.0743 H         1 ATP         0.5017
@<TRIPOS>BOND
     1    1    2 2
     2    1    3 1
     3    1    4 1
     4    1    8 1
     5    4   32 1
     6    5    6 2
     7    5    7 1
     8    5    8 1
     9    5   12 1
    10    7   33 1
    11    9   10 2
    12    9   11 1
    13    9   12 1
    14    9   13 1
    15   11   34 1
    16   13   14 1
    17   14   15 1
    18   14   35 1
    19   14   36 1
    20   15   16 1
    21   15   17 1
    22   15   37 1
    23   16   21 1
    24   17   18 1
    25   17   19 1
    26   17   38 1
    27   18   39 1
    28   19   20 1
    29   19   21 1
    30   19   40 1
    31   20   41 1
    32   21   22 1
    33   21   42 1
    34   22   23 ar
    35   22   31 ar
    36   23   24 ar
    37   23   43 1
    38   24   25 ar
    39   24   47 1
    40   25   26 ar
    41   25   31 ar
    42   26   27 1
    43   26   28 ar
    44   27   44 1
    45   27   45 1
    46   28   29 ar
    47   29   30 ar
    48   29   46 1
    49   30   31 ar
@<TRIPOS>SUBSTRUCTURE
     1 ATP         1 GROUP 0 A     ****
@<TRIPOS>MOLECULE
[[[5-(6-amino-7,8-dihydropurin-8-ylium-9-yl)-3,4-dihydroxy-tetrahydrofuran-2-yl]methoxy-hydroxy-phosphoryl]oxy-hydroxy-phosphoryl] hydrogen phosphate
   47    49     1     0     0
SMALL
USER_CHARGES

@<TRIPOS>ATOM
      1 PG          4.8129    5.1499   -4.9519 P.3       1 ATP         1.5449
      2 O1G         5.8657    5.2149   -3.8678 O.co2     1 ATP        -0.8177
      3 O2G         3.9179    6.3365   -5.2332 O.co2     1 ATP        -0.8177
      4 O3G         5.5349    4.7012   -6.3458 O.3       1 ATP        -0.7779
      5 PB          2.8456    3.4554   -3.5248 P.3       1 ATP         1.9141
      6 O1B         3.4335    3.4034   -2.1455 O.2       1 ATP        -0.8754
      7 O2B         1.6432    4.5198   -3.7117 O.3       1 ATP        -0.8083
      8 O3B         3.8862    3.8330   -4.7013 O.3       1 ATP        -0.8025
      9 PA          2.8849    0.6141   -4.3169 P.3       1 ATP         1.8015
     10 O1A         4.0138    0.5846   -5.3061 O.2       1 ATP        -0.8201
     11 O2A         1.6272   -0.3226   -4.7151 O.3       1 ATP        -0.8103
     12 O3A         2.2239    2.0669   -4.0670 O.3       1 ATP        -0.8038
     13 O5'         3.2874    0.1332   -2.8242 O.3       1 ATP        -0.5730
     14 C5'         2.2816   -0.2918   -1.9206 C.3       1 ATP         0.1929
     15 C4'         2.7248    0.0226   -0.4980 C.3       1 ATP         0.1044
     16 O4'         2.4697    1.4219   -0.2462 O.3       1 ATP        -0.4079
     17 C3'         1.9404   -0.7419    0.5596 C.3       1 ATP         0.1439
     18 O3'         2.7418   -0.8086    1.7389 O.3       1 ATP        -0.5593
     19 C2'         0.7477    0.1630    0.7858 C.3       1 ATP         0.0644
     20 O2'         0.1373   -0.0577    2.0407 O.3       1 ATP        -0.5595
     21 C1'         1.3733    1.5427    0.6747 C.3       1 ATP         0.3792
     22 N9          0.4520    2.5240    0.1767 N.pl3     1 ATP        -0.5557
     23 C8          0.1928    2.8484   -1.0815 C.ar      1 ATP         0.2849
     24 N7         -0.7248    3.8048   -1.2110 N.pl3     1 ATP        -0.5117
     25 C5         -1.0765    4.1129    0.0571 C.ar      1 ATP        -0.2787
     26 C6         -1.9614    5.0063    0.5851 C.ar      1 ATP         0.7736
     27 N6         -2.7145    5.8254   -0.2810 N.pl3     1 ATP        -0.9480
     28 N1         -2.1199    5.1113    1.9228 N.ar      1 ATP        -0.7442
     29 C2         -1.3522    4.2822    2.6839 C.ar      1 ATP         0.7202
     30 N3         -0.4501    3.3660    2.2638 N.ar      1 ATP        -0.6957
     31 C4         -0.3487    3.3198    0.9322 C.ar      1 ATP         0.6231
     32 HOG3        4.9816    4.6127   -7.1510 H         1 ATP         0.4452
     33 HOB2        1.8203    5.4700   -3.5450 H         1 ATP         0.4969
     34 HOA2        1.7696   -1.2871   -4.8221 H         1 ATP         0.4779
     35 H5'1        1.3494    0.2323   -2.1552 H         1 ATP         0.0280
     36 H5'2        2.1260   -1.3686   -2.0436 H         1 ATP         0.0280
     37 H4'         3.8049   -0.1388   -0.4009 H         1 ATP         0.2049
     38 H3'         1.6783   -1.7629    0.2715 H         1 ATP         0.1077
     39 HO3'        2.2232   -1.2979    2.3953 H         1 ATP         0.4255
     40 H2'        -0.0011    0.0027    0.0003 H         1 ATP         0.0584
     41 HO2'       -0.6141    0.5574    2.1082 H         1 ATP         0.4149
     42 H1'         1.7826    1.9024    1.6451 H         1 ATP         0.1459
     43 H8          0.6728    2.3873   -1.9272 H         1 ATP         0.2739
     44 HN61       -2.5537    5.7714   -1.2667 H         1 ATP         0.4605
     45 HN62       -3.3283    6.5126    0.1080 H         1 ATP         0.4605
     46 H2         -1.4818    4.3694    3.7565 H         1 ATP         0.0904
     47 H47        -1.0701    4.2005   -2.0743 H         1 ATP         0.5017
@<TRIPOS>BOND
     1    1    2 2
     2    1    3 1
     3    1    4 1
     4    1    8 1
     5    4   32 1
     6    5    6 2
     7    5    7 1
     8    5    8 1
     9    5   12 1
    10    7   33 1
    11    9   10 2
    12    9   11 1
    13    9   12 1
    14    9   13 1
    15   11   34 1
    16   13   14 1
    17   14   15 1
    18   14   35 1
    19   14   36 1
    20   15   16 1
    21   15   17 1
    22   15   37 1
    23   16   21 1
    24   17   18 1
    25   17   19 1
    26   17   38 1
    27   18   39 1
    28   19   20 1
    29   19   21 1
    30   19   40 1
    31   20   41 1
    32   21   22 1
    33   21   42 1
    34   22   23 ar
    35   22   31 ar
    36   23   24 ar
    37   23   43 1
    38   24   25 ar
    39   24   47 1
    40   25   26 ar
    41   25   31 ar
    42   26   27 1
    43   26   28 ar
    44   27   44 1
    45   27   45 1
    46   28   29 ar
    47   29   30 ar
    48   29   46 1
    49   30   31 ar
@<TRIPOS>SUBSTRUCTURE
     1 ATP         1 GROUP 0 A     ****
@<TRIPOS>MOLECULE
[[[5-(6-amino-7,8-dihydropurin-8-ylium-9-yl)-3,4-dihydroxy-tetrahydrofuran-2-yl]methoxy-hydroxy-phosphoryl]oxy-hydroxy-phosphoryl] hydrogen phosphate
   47    49     1     0     0
SMALL
USER_CHARGES

@<TRIPOS>ATOM
      1 PG         -1.1402    2.6851   -6.3673 P.3       1 ATP         1.5449
      2 O1G        -0.7054    2.9017   -7.7998 O.co2     1 ATP        -0.8177
      3 O2G        -1.9235    3.7468   -5.6276 O.co2     1 ATP        -0.8177
      4 O3G        -1.9653    1.2786   -6.2859 O.3       1 ATP        -0.7779
      5 PB          1.4877    3.1024   -5.0640 P.3       1 ATP         1.9141
      6 O1B         2.3202    3.5961   -6.2103 O.2       1 ATP        -0.8754
      7 O2B         0.9292    4.2586   -4.0817 O.3       1 ATP        -0.8083
      8 O3B         0.1651    2.2744   -5.4822 O.3       1 ATP        -0.8025
      9 PA          2.8849    0.6141   -4.3169 P.3       1 ATP         1.8015
     10 O1A         4.0138    0.5846   -5.3061 O.2       1 ATP        -0.8201
     11 O2A         1.6272   -0.3226   -4.7151 O.3       1 ATP        -0.8103
     12 O3A         2.2239    2.0669   -4.0670 O.3       1 ATP        -0.8038
     13 O5'         3.2874    0.1332   -2.8242 O.3       1 ATP        -0.5730
     14 C5'         2.2816   -0.2918   -1.9206 C.3       1 ATP         0.1929
     15 C4'         2.7248    0.0226   -0.4980 C.3       1 ATP         0.1044
     16 O4'         2.4697    1.4219   -0.2462 O.3       1 ATP        -0.4079
     17 C3'         1.9404   -0.7419    0.5596 C.3       1 ATP         0.1439
     18 O3'         2.7418   -0.8086    1.7389 O.3       1 ATP        -0.5593
     19 C2'         0.7477    0.1630    0.7858 C.3       1 ATP         0.0644
     20 O2'         0.1373   -0.0577    2.0407 O.3       1 ATP        -0.5595
     21 C1'         1.3733    1.5427    0.6747 C.3       1 ATP         0.3792
     22 N9          0.4520    2.5240    0.1767 N.pl3     1 ATP        -0.5557
     23 C8          0.1928    2.8484   -1.0815 C.ar      1 ATP         0.2849
     24 N7         -0.7248    3.8048   -1.2110 N.pl3     1 ATP        -0.5117
     25 C5         -1.0765    4.1129    0.0571 C.ar      1 ATP        -0.2787
     26 C6         -1.9614    5.0063    0.5851 C.ar      1 ATP         0.7736
     27 N6         -2.7145    5.8254   -0.2810 N.pl3     1 ATP        -0.9480
     28 N1         -2.1199    5.1113    1.9228 N.ar      1 ATP        -0.7442
     29 C2         -1.3522    4.2822    2.6839 C.ar      1 ATP         0.7202
     30 N3         -0.4501    3.3660    2.2638 N.ar      1 ATP        -0.6957
     31 C4         -0.3487    3.3198    0.9322 C.ar      1 ATP         0.6231
     32 HOG3       -2.3175    0.9935   -5.4159 H         1 ATP         0.4452
     33 HOB2        0.3474    4.9560   -4.4522 H         1 ATP         0.4969
     34 HOA2        1.1551   -0.1496   -5.5573 H         1 ATP         0.4779
     35 H5'1        1.3494    0.2323   -2.1552 H         1 ATP         0.0280
     36 H5'2        2.1260   -1.3686   -2.0436 H         1 ATP         0.0280
     37 H4'         3.8049   -0.1388   -0.4009 H         1 ATP         0.2049
     38 H3'         1.6783   -1.7629    0.2715 H         1 ATP         0.1077
     39 HO3'        2.2232   -1.2979    2.3953 H         1 ATP         0.4255
     40 H2'        -0.0011    0.0027    0.0003 H         1 ATP         0.0584
     41 HO2'       -0.6141    0.5574    2.1082 H         1 ATP         0.4149
     42 H1'         1.7826    1.9024    1.6451 H         1 ATP         0.1459
     43 H8          0.6728    2.3873   -1.9272 H         1 ATP         0.2739
     44 HN61       -2.5537    5.7714   -1.2667 H         1 ATP         0.4605
     45 HN62       -3.3283    6.5126    0.1080 H         1 ATP         0.4605
     46 H2         -1.4818    4.3694    3.7565 H         1 ATP         0.0904
     47 H47        -1.0701    4.2005   -2.0743 H         1 ATP         0.5017
@<TRIPOS>BOND
     1    1    2 2
     2    1    3 1
     3    1    4 1
     4    1    8 1
     5    4   32 1
     6    5    6 2
     7    5    7 1
     8    5    8 1
     9    5   12 1
    10    7   33 1
    11    9   10 2
    12    9   11 1
    13    9   12 1
    14    9   13 1
    15   11   34 1
    16   13   14 1
    17   14   15 1
    18   14   35 1
    19   14   36 1
    20   15   16 1
    21   15   17 1
    22   15   37 1
    23   16   21 1
    24   17   18 1
    25   17   19 1
    26   17   38 1
    27   18   39 1
    28   19   20 1
    29   19   21 1
    30   19   40 1
    31   20   41 1
    32   21   22 1
    33   21   42 1
    34   22   23 ar
    35   22   31 ar
    36   23   24 ar
    37   23   43 1
    38   24   25 ar
    39   24   47 1
    40   25   26 ar
    41   25   31 ar
    42   26   27 1
    43   26   28 ar
    44   27   44 1
    45   27   45 1
    46   28   29 ar
    47   29   30 ar
    48   29   46 1
    49   30   31 ar
@<TRIPOS>SUBSTRUCTURE
     1 ATP         1 GROUP 0 A     ****
@<TRIPOS>MOLECULE
[[[5-(6-amino-7,8-dihydropurin-8-ylium-9-yl)-3,4-dihydroxy-tetrahydrofuran-2-yl]methoxy-hydroxy-phosphoryl]oxy-hydroxy-phosphoryl] hydrogen phosphate
   47    49     1     0     0
SMALL
USER_CHARGES

@<TRIPOS>ATOM
      1 PG          6.4191   -2.9593   -6.0833 P.3       1 ATP         1.5449
      2 O1G         7.4432   -2.9358   -4.9703 O.co2     1 ATP        -0.8177
      3 O2G         6.6811   -2.2453   -7.3907 O.co2     1 ATP        -0.8177
      4 O3G         6.0442   -4.5151   -6.4064 O.3       1 ATP        -0.7779
      5 PB          4.4913   -1.0337   -4.9198 P.3       1 ATP         1.9141
      6 O1B         5.2556   -0.5156   -3.7373 O.2       1 ATP        -0.8754
      7 O2B         4.5147   -0.0719   -6.2191 O.3       1 ATP        -0.8083
      8 O3B         4.9866   -2.4637   -5.4850 O.3       1 ATP        -0.8025
      9 PA          2.1471   -2.2827   -3.6367 P.3       1 ATP         1.8015
     10 O1A         2.4550   -3.7444   -3.7865 O.2       1 ATP        -0.8201
     11 O2A         0.5865   -1.9075   -3.8410 O.3       1 ATP        -0.8103
     12 O3A         2.9198   -1.3056   -4.6653 O.3       1 ATP        -0.8038
     13 O5'         2.5233   -1.6623   -2.1893 O.3       1 ATP        -0.5730
     14 C5'         2.2816   -0.2918   -1.9206 C.3       1 ATP         0.1929
     15 C4'         2.7248    0.0226   -0.4980 C.3       1 ATP         0.1044
     16 O4'         2.4697    1.4219   -0.2462 O.3       1 ATP        -0.4079
     17 C3'         1.9404   -0.7419    0.5596 C.3       1 ATP         0.1439
     18 O3'         2.7418   -0.8086    1.7389 O.3       1 ATP        -0.5593
     19 C2'         0.7477    0.1630    0.7858 C.3       1 ATP         0.0644
     20 O2'         0.1373   -0.0577    2.0407 O.3       1 ATP        -0.5595
     21 C1'         1.3733    1.5427    0.6747 C.3       1 ATP         0.3792
     22 N9          0.4520    2.5240    0.1767 N.pl3     1 ATP        -0.5557
     23 C8          0.1928    2.8484   -1.0815 C.ar      1 ATP         0.2849
     24 N7         -0.7248    3.8048   -1.2110 N.pl3     1 ATP        -0.5117
     25 C5         -1.0765    4.1129    0.0571 C.ar      1 ATP        -0.2787
     26 C6         -1.9614    5.0063    0.5851 C.ar      1 ATP         0.7736
     27 N6         -2.7145    5.8254   -0.2810 N.pl3     1 ATP        -0.9480
     28 N1         -2.1199    5.1113    1.9228 N.ar      1 ATP        -0.7442
     29 C2         -1.3522    4.2822    2.6839 C.ar      1 ATP         0.7202
     30 N3         -0.4501    3.3660    2.2638 N.ar      1 ATP        -0.6957
     31 C4         -0.3487    3.3198    0.9322 C.ar      1 ATP         0.6231
     32 HOG3        5.3874   -4.7006   -7.1110 H         1 ATP         0.4452
     33 HOB2        5.3771    0.1473   -6.6318 H         1 ATP         0.4969
     34 HOA2       -0.0800   -2.3109   -3.2451 H         1 ATP         0.4779
     35 H5'1        2.8428    0.3149   -2.6387 H         1 ATP         0.0280
     36 H5'2        1.2124   -0.0897   -2.0417 H         1 ATP         0.0280
     37 H4'         3.8049   -0.1388   -0.4009 H         1 ATP         0.2049
     38 H3'         1.6783   -1.7629    0.2715 H         1 ATP         0.1077
     39 HO3'        2.2232   -1.2979    2.3953 H         1 ATP         0.4255
     40 H2'        -0.0011    0.0027    0.0003 H         1 ATP         0.0584
     41 HO2'       -0.6141    0.5574    2.1082 H         1 ATP         0.4149
     42 H1'         1.7826    1.9024    1.6451 H         1 ATP         0.1459
     43 H8          0.6728    2.3873   -1.9272 H         1 ATP         0.2739
     44 HN61       -2.5537    5.7714   -1.2667 H         1 ATP         0.4605
     45 HN62       -3.3283    6.5126    0.1080 H         1 ATP         0.4605
     46 H2         -1.4818    4.3694    3.7565 H         1 ATP         0.0904
     47 H47        -1.0701    4.2005   -2.0743 H         1 ATP         0.5017
@<TRIPOS>BOND
     1    1    2 2
     2    1    3 1
     3    1    4 1
     4    1    8 1
     5    4   32 1
     6    5    6 2
     7    5    7 1
     8    5    8 1
     9    5   12 1
    10    7   33 1
    11    9   10 2
    12    9   11 1
    13    9   12 1
    14    9   13 1
    15   11   34 1
    16   13   14 1
    17   14   15 1
    18   14   35 1
    19   14   36 1
    20   15   16 1
    21   15   17 1
    22   15   37 1
    23   16   21 1
    24   17   18 1
    25   17   19 1
    26   17   38 1
    27   18   39 1
    28   19   20 1
    29   19   21 1
    30   19   40 1
    31   20   41 1
    32   21   22 1
    33   21   42 1
    34   22   23 ar
    35   22   31 ar
    36   23   24 ar
    37   23   43 1
    38   24   25 ar
    39   24   47 1
    40   25   26 ar
    41   25   31 ar
    42   26   27 1
    43   26   28 ar
    44   27   44 1
    45   27   45 1
    46   28   29 ar
    47   29   30 ar
    48   29   46 1
    49   30   31 ar
@<TRIPOS>SUBSTRUCTURE
     1 ATP         1 GROUP 0 A     ****
@<TRIPOS>MOLECULE
[[[5-(6-amino-7,8-dihydropurin-8-ylium-9-yl)-3,4-dihydroxy-tetrahydrofuran-2-yl]methoxy-hydroxy-phosphoryl]oxy-hydroxy-phosphoryl] hydrogen phosphate
   47    49     1     0     0
SMALL
USER_CHARGES

@<TRIPOS>ATOM
      1 PG         -0.3791   -0.9101   -8.0465 P.3       1 ATP         1.5449
      2 O1G        -1.8755   -0.8225   -7.8441 O.co2     1 ATP        -0.8177
      3 O2G         0.2643   -2.1969   -8.5136 O.co2     1 ATP        -0.8177
      4 O3G         0.0769    0.2937   -9.0507 O.3       1 ATP        -0.7779
      5 PB          0.2167    0.9431   -5.8129 P.3       1 ATP         1.9141
      6 O1B         0.5332    2.2124   -6.5476 O.2       1 ATP        -0.8754
      7 O2B        -1.2821    0.8607   -5.2127 O.3       1 ATP        -0.8083
      8 O3B         0.3621   -0.4095   -6.6842 O.3       1 ATP        -0.8025
      9 PA          2.7564    0.3912   -4.4176 P.3       1 ATP         1.8015
     10 O1A         3.6045    1.2999   -5.2596 O.2       1 ATP        -0.8201
     11 O2A         2.9489   -1.1831   -4.7370 O.3       1 ATP        -0.8103
     12 O3A         1.1624    0.6216   -4.5439 O.3       1 ATP        -0.8038
     13 O5'         3.0190    0.5130   -2.8246 O.3       1 ATP        -0.5730
     14 C5'         2.2816   -0.2918   -1.9206 C.3       1 ATP         0.1929
     15 C4'         2.7248    0.0226   -0.4980 C.3       1 ATP         0.1044
     16 O4'         2.4697    1.4219   -0.2462 O.3       1 ATP        -0.4079
     17 C3'         1.9404   -0.7419    0.5596 C.3       1 ATP         0.1439
     18 O3'         2.7418   -0.8086    1.7389 O.3       1 ATP        -0.5593
     19 C2'         0.7477    0.1630    0.7858 C.3       1 ATP         0.0644
     20 O2'         0.1373   -0.0577    2.0407 O.3       1 ATP        -0.5595
     21 C1'         1.3733    1.5427    0.6747 C.3       1 ATP         0.3792
     22 N9          0.4520    2.5240    0.1767 N.pl3     1 ATP        -0.5557
     23 C8          0.1928    2.8484   -1.0815 C.ar      1 ATP         0.2849
     24 N7         -0.7248    3.8048   -1.2110 N.pl3     1 ATP        -0.5117
     25 C5         -1.0765    4.1129    0.0571 C.ar      1 ATP        -0.2787
     26 C6         -1.9614    5.0063    0.5851 C.ar      1 ATP         0.7736
     27 N6         -2.7145    5.8254   -0.2810 N.pl3     1 ATP        -0.9480
     28 N1         -2.1199    5.1113    1.9228 N.ar      1 ATP        -0.7442
     29 C2         -1.3522    4.2822    2.6839 C.ar      1 ATP         0.7202
     30 N3         -0.4501    3.3660    2.2638 N.ar      1 ATP        -0.6957
     31 C4         -0.3487    3.3198    0.9322 C.ar      1 ATP         0.6231
     32 HOG3        1.0265    0.3737   -9.2830 H         1 ATP         0.4452
     33 HOB2       -2.0437    0.9187   -5.8280 H         1 ATP         0.4969
     34 HOA2        2.7517   -1.5112   -5.6402 H         1 ATP         0.4779
     35 H5'1        1.2149   -0.0786   -2.0446 H         1 ATP         0.0280
     36 H5'2        2.4641   -1.3459   -2.1539 H         1 ATP         0.0280
     37 H4'         3.8049   -0.1388   -0.4009 H         1 ATP         0.2049
     38 H3'         1.6783   -1.7629    0.2715 H         1 ATP         0.1077
     39 HO3'        2.2232   -1.2979    2.3953 H         1 ATP         0.4255
     40 H2'        -0.0011    0.0027    0.0003 H         1 ATP         0.0584
     41 HO2'       -0.1563   -0.9855    2.0596 H         1 ATP         0.4149
     42 H1'         1.7826    1.9024    1.6451 H         1 ATP         0.1459
     43 H8          0.6728    2.3873   -1.9272 H         1 ATP         0.2739
     44 HN61       -2.5537    5.7714   -1.2667 H         1 ATP         0.4605
     45 HN62       -3.3283    6.5126    0.1080 H         1 ATP         0.4605
     46 H2         -1.4818    4.3694    3.7565 H         1 ATP         0.0904
     47 H47        -1.0701    4.2005   -2.0743 H         1 ATP         0.5017
@<TRIPOS>BOND
     1    1    2 2
     2    1    3 1
     3    1    4 1
     4    1    8 1
     5    4   32 1
     6    5    6 2
     7    5    7 1
     8    5    8 1
     9    5   12 1
    10    7   33 1
    11    9   10 2
    12    9   11 1
    13    9   12 1
    14    9   13 1
    15   11   34 1
    16   13   14 1
    17   14   15 1
    18   14   35 1
    19   14   36 1
    20   15   16 1
    21   15   17 1
    22   15   37 1
    23   16   21 1
    24   17   18 1
    25   17   19 1
    26   17   38 1
    27   18   39 1
    28   19   20 1
    29   19   21 1
    30   19   40 1
    31   20   41 1
    32   21   22 1
    33   21   42 1
    34   22   23 ar
    35   22   31 ar
    36   23   24 ar
    37   23   43 1
    38   24   25 ar
    39   24   47 1
    40   25   26 ar
    41   25   31 ar
    42   26   27 1
    43   26   28 ar
    44   27   44 1
    45   27   45 1
    46   28   29 ar
    47   29   30 ar
    48   29   46 1
    49   30   31 ar
@<TRIPOS>SUBSTRUCTURE
     1 ATP         1 GROUP 0 A     ****
@<TRIPOS>MOLECULE
[[[5-(6-amino-7,8-dihydropurin-8-ylium-9-yl)-3,4-dihydroxy-tetrahydrofuran-2-yl]methoxy-hydroxy-phosphoryl]oxy-hydroxy-phosphoryl] hydrogen phosphate
   47    49     1     0     0
SMALL
USER_CHARGES

@<TRIPOS>ATOM
      1 PG          0.6465   -0.3909   -7.9799 P.3       1 ATP         1.5449
      2 O1G         0.5835   -1.6140   -8.8676 O.co2     1 ATP        -0.8177
      3 O2G         1.2214    0.9100   -8.4948 O.co2     1 ATP        -0.8177
      4 O3G        -0.8494   -0.1021   -7.3929 O.3       1 ATP        -0.7779
      5 PB          2.9242   -1.2245   -6.2783 P.3       1 ATP         1.9141
      6 O1B         3.3940   -2.4620   -6.9847 O.2       1 ATP        -0.8754
      7 O2B         3.7811    0.1083   -6.5990 O.3       1 ATP        -0.8083
      8 O3B         1.3996   -0.7919   -6.5914 O.3       1 ATP        -0.8025
      9 PA          2.1471   -2.2827   -3.6367 P.3       1 ATP         1.8015
     10 O1A         2.4550   -3.7444   -3.7865 O.2       1 ATP        -0.8201
     11 O2A         0.5865   -1.9075   -3.8410 O.3       1 ATP        -0.8103
     12 O3A         2.9198   -1.3056   -4.6653 O.3       1 ATP        -0.8038
     13 O5'         2.5233   -1.6623   -2.1893 O.3       1 ATP        -0.5730
     14 C5'         2.2816   -0.2918   -1.9206 C.3       1 ATP         0.1929
     15 C4'         2.7248    0.0226   -0.4980 C.3       1 ATP         0.1044
     16 O4'         2.4697    1.4219   -0.2462 O.3       1 ATP        -0.4079
     17 C3'         1.9404   -0.7419    0.5596 C.3       1 ATP         0.1439
     18 O3'         2.7418   -0.8086    1.7389 O.3       1 ATP        -0.5593
     19 C2'         0.7477    0.1630    0.7858 C.3       1 ATP         0.0644
     20 O2'         0.1373   -0.0577    2.0407 O.3       1 ATP        -0.5595
     21 C1'         1.3733    1.5427    0.6747 C.3       1 ATP         0.3792
     22 N9          0.4520    2.5240    0.1767 N.pl3     1 ATP        -0.5557
     23 C8          0.1928    2.8484   -1.0815 C.ar      1 ATP         0.2849
     24 N7         -0.7248    3.8048   -1.2110 N.pl3     1 ATP        -0.5117
     25 C5         -1.0765    4.1129    0.0571 C.ar      1 ATP        -0.2787
     26 C6         -1.9614    5.0063    0.5851 C.ar      1 ATP         0.7736
     27 N6         -2.7145    5.8254   -0.2810 N.pl3     1 ATP        -0.9480
     28 N1         -2.1199    5.1113    1.9228 N.ar      1 ATP        -0.7442
     29 C2         -1.3522    4.2822    2.6839 C.ar      1 ATP         0.7202
     30 N3         -0.4501    3.3660    2.2638 N.ar      1 ATP        -0.6957
     31 C4         -0.3487    3.3198    0.9322 C.ar      1 ATP         0.6231
     32 HOG3       -0.9764    0.6648   -6.7946 H         1 ATP         0.4452
     33 HOB2        3.8342    0.4270   -7.5251 H         1 ATP         0.4969
     34 HOA2        0.1583   -2.1116   -4.6996 H         1 ATP         0.4779
     35 H5'1        2.8428    0.3149   -2.6387 H         1 ATP         0.0280
     36 H5'2        1.2124   -0.0897   -2.0417 H         1 ATP         0.0280
     37 H4'         3.8049   -0.1388   -0.4009 H         1 ATP         0.2049
     38 H3'         1.6783   -1.7629    0.2715 H         1 ATP         0.1077
     39 HO3'        2.2232   -1.2979    2.3953 H         1 ATP         0.4255
     40 H2'        -0.0011    0.0027    0.0003 H         1 ATP         0.0584
     41 HO2'       -0.6141    0.5574    2.1082 H         1 ATP         0.4149
     42 H1'         1.7826    1.9024    1.6451 H         1 ATP         0.1459
     43 H8          0.6728    2.3873   -1.9272 H         1 ATP         0.2739
     44 HN61       -2.5537    5.7714   -1.2667 H         1 ATP         0.4605
     45 HN62       -3.3283    6.5126    0.1080 H         1 ATP         0.4605
     46 H2         -1.4818    4.3694    3.7565 H         1 ATP         0.0904
     47 H47        -1.0701    4.2005   -2.0743 H         1 ATP         0.5017
@<TRIPOS>BOND
     1    1    2 2
     2    1    3 1
     3    1    4 1
     4    1    8 1
     5    4   32 1
     6    5    6 2
     7    5    7 1
     8    5    8 1
     9    5   12 1
    10    7   33 1
    11    9   10 2
    12    9   11 1
    13    9   12 1
    14    9   13 1
    15   11   34 1
    16   13   14 1
    17   14   15 1
    18   14   35 1
    19   14   36 1
    20   15   16 1
    21   15   17 1
    22   15   37 1
    23   16   21 1
    24   17   18 1
    25   17   19 1
    26   17   38 1
    27   18   39 1
    28   19   20 1
    29   19   21 1
    30   19   40 1
    31   20   41 1
    32   21   22 1
    33   21   42 1
    34   22   23 ar
    35   22   31 ar
    36   23   24 ar
    37   23   43 1
    38   24   25 ar
    39   24   47 1
    40   25   26 ar
    41   25   31 ar
    42   26   27 1
    43   26   28 ar
    44   27   44 1
    45   27   45 1
    46   28   29 ar
    47   29   30 ar
    48   29   46 1
    49   30   31 ar
@<TRIPOS>SUBSTRUCTURE
     1 ATP         1 GROUP 0 A     ****
@<TRIPOS>MOLECULE
[[[5-(6-amino-7,8-dihydropurin-8-ylium-9-yl)-3,4-dihydroxy-tetrahydrofuran-2-yl]methoxy-hydroxy-phosphoryl]oxy-hydroxy-phosphoryl] hydrogen phosphate
   47    49     1     0     0
SMALL
USER_CHARGES

@<TRIPOS>ATOM
      1 PG          4.0979    1.4948   -6.2012 P.3       1 ATP         1.5449
      2 O1G         5.3311    2.0926   -6.8414 O.co2     1 ATP        -0.8177
      3 O2G         3.8221    1.6860   -4.7263 O.co2     1 ATP        -0.8177
      4 O3G         2.7891    1.9881   -7.0433 O.3       1 ATP        -0.7779
      5 PB          2.9242   -1.2245   -6.2783 P.3       1 ATP         1.9141
      6 O1B         1.5910   -0.9620   -6.9142 O.2       1 ATP        -0.8754
      7 O2B         3.6362   -2.6020   -6.7356 O.3       1 ATP        -0.8083
      8 O3B         4.0485   -0.0965   -6.5491 O.3       1 ATP        -0.8025
      9 PA          2.1471   -2.2827   -3.6367 P.3       1 ATP         1.8015
     10 O1A         2.4550   -3.7444   -3.7865 O.2       1 ATP        -0.8201
     11 O2A         0.5865   -1.9075   -3.8410 O.3       1 ATP        -0.8103
     12 O3A         2.9198   -1.3056   -4.6653 O.3       1 ATP        -0.8038
     13 O5'         2.5233   -1.6623   -2.1893 O.3       1 ATP        -0.5730
     14 C5'         2.2816   -0.2918   -1.9206 C.3       1 ATP         0.1929
     15 C4'         2.7248    0.0226   -0.4980 C.3       1 ATP         0.1044
     16 O4'         2.4697    1.4219   -0.2462 O.3       1 ATP        -0.4079
     17 C3'         1.9404   -0.7419    0.5596 C.3       1 ATP         0.1439
     18 O3'         2.7418   -0.8086    1.7389 O.3       1 ATP        -0.5593
     19 C2'         0.7477    0.1630    0.7858 C.3       1 ATP         0.0644
     20 O2'         0.1373   -0.0577    2.0407 O.3       1 ATP        -0.5595
     21 C1'         1.3733    1.5427    0.6747 C.3       1 ATP         0.3792
     22 N9          0.4520    2.5240    0.1767 N.pl3     1 ATP        -0.5557
     23 C8          0.1928    2.8484   -1.0815 C.ar      1 ATP         0.2849
     24 N7         -0.7248    3.8048   -1.2110 N.pl3     1 ATP        -0.5117
     25 C5         -1.0765    4.1129    0.0571 C.ar      1 ATP        -0.2787
     26 C6         -1.9614    5.0063    0.5851 C.ar      1 ATP         0.7736
     27 N6         -2.7145    5.8254   -0.2810 N.pl3     1 ATP        -0.9480
     28 N1         -2.1199    5.1113    1.9228 N.ar      1 ATP        -0.7442
     29 C2         -1.3522    4.2822    2.6839 C.ar      1 ATP         0.7202
     30 N3         -0.4501    3.3660    2.2638 N.ar      1 ATP        -0.6957
     31 C4         -0.3487    3.3198    0.9322 C.ar      1 ATP         0.6231
     32 HOG3        1.9037    1.6831   -6.7513 H         1 ATP         0.4452
     33 HOB2        3.1760   -3.4521   -6.5694 H         1 ATP         0.4969
     34 HOA2        0.1583   -2.1116   -4.6996 H         1 ATP         0.4779
     35 H5'1        2.8428    0.3149   -2.6387 H         1 ATP         0.0280
     36 H5'2        1.2124   -0.0897   -2.0417 H         1 ATP         0.0280
     37 H4'         3.8049   -0.1388   -0.4009 H         1 ATP         0.2049
     38 H3'         1.6783   -1.7629    0.2715 H         1 ATP         0.1077
     39 HO3'        2.2232   -1.2979    2.3953 H         1 ATP         0.4255
     40 H2'        -0.0011    0.0027    0.0003 H         1 ATP         0.0584
     41 HO2'       -0.1563   -0.9855    2.0596 H         1 ATP         0.4149
     42 H1'         1.7826    1.9024    1.6451 H         1 ATP         0.1459
     43 H8          0.6728    2.3873   -1.9272 H         1 ATP         0.2739
     44 HN61       -2.5537    5.7714   -1.2667 H         1 ATP         0.4605
     45 HN62       -3.3283    6.5126    0.1080 H         1 ATP         0.4605
     46 H2         -1.4818    4.3694    3.7565 H         1 ATP         0.0904
     47 H47        -1.0701    4.2005   -2.0743 H         1 ATP         0.5017
@<TRIPOS>BOND
     1    1    2 2
     2    1    3 1
     3    1    4 1
     4    1    8 1
     5    4   32 1
     6    5    6 2
     7    5    7 1
     8    5    8 1
     9    5   12 1
    10    7   33 1
    11    9   10 2
    12    9   11 1
    13    9   12 1
    14    9   13 1
    15   11   34 1
    16   13   14 1
    17   14   15 1
    18   14   35 1
    19   14   36 1
    20   15   16 1
    21   15   17 1
    22   15   37 1
    23   16   21 1
    24   17   18 1
    25   17   19 1
    26   17   38 1
    27   18   39 1
    28   19   20 1
    29   19   21 1
    30   19   40 1
    31   20   41 1
    32   21   22 1
    33   21   42 1
    34   22   23 ar
    35   22   31 ar
    36   23   24 ar
    37   23   43 1
    38   24   25 ar
    39   24   47 1
    40   25   26 ar
    41   25   31 ar
    42   26   27 1
    43   26   28 ar
    44   27   44 1
    45   27   45 1
    46   28   29 ar
    47   29   30 ar
    48   29   46 1
    49   30   31 ar
@<TRIPOS>SUBSTRUCTURE
     1 ATP         1 GROUP 0 A     ****
@<TRIPOS>MOLECULE
[[[5-(6-amino-7,8-dihydropurin-8-ylium-9-yl)-3,4-dihydroxy-tetrahydrofuran-2-yl]methoxy-hydroxy-phosphoryl]oxy-hydroxy-phosphoryl] hydrogen phosphate
   47    49     1     0     0
SMALL
USER_CHARGES

@<TRIPOS>ATOM
      1 PG          0.3648    2.4481   -7.4325 P.3       1 ATP         1.5449
      2 O1G        -0.0488    3.6478   -6.6091 O.co2     1 ATP        -0.8177
      3 O2G        -0.6430    1.7115   -8.2867 O.co2     1 ATP        -0.8177
      4 O3G         1.6278    2.8789   -8.3731 O.3       1 ATP        -0.7779
      5 PB          0.5804    0.4806   -5.2277 P.3       1 ATP         1.9141
      6 O1B         0.0080    1.2520   -4.0752 O.2       1 ATP        -0.8754
      7 O2B        -0.4418   -0.5609   -5.9234 O.3       1 ATP        -0.8083
      8 O3B         1.1166    1.3802   -6.4577 O.3       1 ATP        -0.8025
      9 PA          3.3392   -0.0290   -4.3163 P.3       1 ATP         1.8015
     10 O1A         4.1272    0.9231   -5.1687 O.2       1 ATP        -0.8201
     11 O2A         4.0576   -1.4591   -4.0783 O.3       1 ATP        -0.8103
     12 O3A         1.8781   -0.4177   -4.8854 O.3       1 ATP        -0.8038
     13 O5'         3.0190    0.5130   -2.8246 O.3       1 ATP        -0.5730
     14 C5'         2.2816   -0.2918   -1.9206 C.3       1 ATP         0.1929
     15 C4'         2.7248    0.0226   -0.4980 C.3       1 ATP         0.1044
     16 O4'         2.4697    1.4219   -0.2462 O.3       1 ATP        -0.4079
     17 C3'         1.9404   -0.7419    0.5596 C.3       1 ATP         0.1439
     18 O3'         2.7418   -0.8086    1.7389 O.3       1 ATP        -0.5593
     19 C2'         0.7477    0.1630    0.7858 C.3       1 ATP         0.0644
     20 O2'         0.1373   -0.0577    2.0407 O.3       1 ATP        -0.5595
     21 C1'         1.3733    1.5427    0.6747 C.3       1 ATP         0.3792
     22 N9          0.4520    2.5240    0.1767 N.pl3     1 ATP        -0.5557
     23 C8          0.1928    2.8484   -1.0815 C.ar      1 ATP         0.2849
     24 N7         -0.7248    3.8048   -1.2110 N.pl3     1 ATP        -0.5117
     25 C5         -1.0765    4.1129    0.0571 C.ar      1 ATP        -0.2787
     26 C6         -1.9614    5.0063    0.5851 C.ar      1 ATP         0.7736
     27 N6         -2.7145    5.8254   -0.2810 N.pl3     1 ATP        -0.9480
     28 N1         -2.1199    5.1113    1.9228 N.ar      1 ATP        -0.7442
     29 C2         -1.3522    4.2822    2.6839 C.ar      1 ATP         0.7202
     30 N3         -0.4501    3.3660    2.2638 N.ar      1 ATP        -0.6957
     31 C4         -0.3487    3.3198    0.9322 C.ar      1 ATP         0.6231
     32 HOG3        2.0155    2.2053   -8.9716 H         1 ATP         0.4452
     33 HOB2       -1.2724   -0.2192   -6.3176 H         1 ATP         0.4969
     34 HOA2        4.9345   -1.4819   -3.6394 H         1 ATP         0.4779
     35 H5'1        1.2149   -0.0786   -2.0446 H         1 ATP         0.0280
     36 H5'2        2.4641   -1.3459   -2.1539 H         1 ATP         0.0280
     37 H4'         3.8049   -0.1388   -0.4009 H         1 ATP         0.2049
     38 H3'         1.6783   -1.7629    0.2715 H         1 ATP         0.1077
     39 HO3'        2.2232   -1.2979    2.3953 H         1 ATP         0.4255
     40 H2'        -0.0011    0.0027    0.0003 H         1 ATP         0.0584
     41 HO2'       -0.6141    0.5574    2.1082 H         1 ATP         0.4149
     42 H1'         1.7826    1.9024    1.6451 H         1 ATP         0.1459
     43 H8          0.6728    2.3873   -1.9272 H         1 ATP         0.2739
     44 HN61       -2.5537    5.7714   -1.2667 H         1 ATP         0.4605
     45 HN62       -3.3283    6.5126    0.1080 H         1 ATP         0.4605
     46 H2         -1.4818    4.3694    3.7565 H         1 ATP         0.0904
     47 H47        -1.0701    4.2005   -2.0743 H         1 ATP         0.5017
@<TRIPOS>BOND
     1    1    2 2
     2    1    3 1
     3    1    4 1
     4    1    8 1
     5    4   32 1
     6    5    6 2
     7    5    7 1
     8    5    8 1
     9    5   12 1
    10    7   33 1
    11    9   10 2
    12    9   11 1
    13    9   12 1
    14    9   13 1
    15   11   34 1
    16   13   14 1
    17   14   15 1
    18   14   35 1
    19   14   36 1
    20   15   16 1
    21   15   17 1
    22   15   37 1
    23   16   21 1
    24   17   18 1
    25   17   19 1
    26   17   38 1
    27   18   39 1
    28   19   20 1
    29   19   21 1
    30   19   40 1
    31   20   41 1
    32   21   22 1
    33   21   42 1
    34   22   23 ar
    35   22   31 ar
    36   23   24 ar
    37   23   43 1
    38   24   25 ar
    39   24   47 1
    40   25   26 ar
    41   25   31 ar
    42   26   27 1
    43   26   28 ar
    44   27   44 1
    45   27   45 1
    46   28   29 ar
    47   29   30 ar
    48   29   46 1
    49   30   31 ar
@<TRIPOS>SUBSTRUCTURE
     1 ATP         1 GROUP 0 A     ****
@<TRIPOS>MOLECULE
[[[5-(6-amino-7,8-dihydropurin-8-ylium-9-yl)-3,4-dihydroxy-tetrahydrofuran-2-yl]methoxy-hydroxy-phosphoryl]oxy-hydroxy-phosphoryl] hydrogen phosphate
   47    49     1     0     0
SMALL
USER_CHARGES

@<TRIPOS>ATOM
      1 PG         -0.3378    2.8510   -6.5056 P.3       1 ATP         1.5449
      2 O1G        -0.5722    1.3701   -6.7055 O.co2     1 ATP        -0.8177
      3 O2G         0.2551    3.6965   -7.6109 O.co2     1 ATP        -0.8177
      4 O3G        -1.7398    3.5346   -6.0232 O.3       1 ATP        -0.7779
      5 PB          2.0581    2.6662   -4.7725 P.3       1 ATP         1.9141
      6 O1B         3.1116    3.2845   -5.6437 O.2       1 ATP        -0.8754
      7 O2B         2.1784    3.0258   -3.2009 O.3       1 ATP        -0.8083
      8 O3B         0.5375    3.0623   -5.1473 O.3       1 ATP        -0.8025
      9 PA          3.0863   -0.0757   -4.4171 P.3       1 ATP         1.8015
     10 O1A         4.3570   -0.0352   -5.2156 O.2       1 ATP        -0.8201
     11 O2A         2.2680   -1.4661   -4.5396 O.3       1 ATP        -0.8103
     12 O3A         1.9950    1.0527   -4.7988 O.3       1 ATP        -0.8038
     13 O5'         3.2874    0.1332   -2.8242 O.3       1 ATP        -0.5730
     14 C5'         2.2816   -0.2918   -1.9206 C.3       1 ATP         0.1929
     15 C4'         2.7248    0.0226   -0.4980 C.3       1 ATP         0.1044
     16 O4'         2.4697    1.4219   -0.2462 O.3       1 ATP        -0.4079
     17 C3'         1.9404   -0.7419    0.5596 C.3       1 ATP         0.1439
     18 O3'         2.7418   -0.8086    1.7389 O.3       1 ATP        -0.5593
     19 C2'         0.7477    0.1630    0.7858 C.3       1 ATP         0.0644
     20 O2'         0.1373   -0.0577    2.0407 O.3       1 ATP        -0.5595
     21 C1'         1.3733    1.5427    0.6747 C.3       1 ATP         0.3792
     22 N9          0.4520    2.5240    0.1767 N.pl3     1 ATP        -0.5557
     23 C8         -0.2172    2.5216   -0.9668 C.ar      1 ATP         0.2849
     24 N7         -1.0011    3.5855   -1.1321 N.pl3     1 ATP        -0.5117
     25 C5         -0.8184    4.3200   -0.0123 C.ar      1 ATP        -0.2787
     26 C6         -1.3349    5.5079    0.4144 C.ar      1 ATP         0.7736
     27 N6         -2.2567    6.1930   -0.4036 N.pl3     1 ATP        -0.9480
     28 N1         -0.9716    6.0291    1.6069 N.ar      1 ATP        -0.7442
     29 C2         -0.0765    5.3009    2.3312 C.ar      1 ATP         0.7202
     30 N3          0.4933    4.1191    2.0023 N.ar      1 ATP        -0.6957
     31 C4          0.0865    3.6675    0.8123 C.ar      1 ATP         0.6231
     32 HOG3       -1.7534    4.5000   -5.8499 H         1 ATP         0.4452
     33 HOB2        2.9947    2.7758   -2.7180 H         1 ATP         0.4969
     34 HOA2        1.9544   -1.7554   -5.4228 H         1 ATP         0.4779
     35 H5'1        1.3494    0.2323   -2.1552 H         1 ATP         0.0280
     36 H5'2        2.1260   -1.3686   -2.0436 H         1 ATP         0.0280
     37 H4'         3.8049   -0.1388   -0.4009 H         1 ATP         0.2049
     38 H3'         1.6783   -1.7629    0.2715 H         1 ATP         0.1077
     39 HO3'        2.2232   -1.2979    2.3953 H         1 ATP         0.4255
     40 H2'        -0.0011    0.0027    0.0003 H         1 ATP         0.0584
     41 HO2'       -0.6141    0.5574    2.1082 H         1 ATP         0.4149
     42 H1'         1.7826    1.9024    1.6451 H         1 ATP         0.1459
     43 H8         -0.1423    1.7373   -1.6999 H         1 ATP         0.2739
     44 HN61       -2.6706    7.0399   -0.0694 H         1 ATP         0.4605
     45 HN62       -2.5527    5.7740   -1.2621 H         1 ATP         0.4605
     46 H2          0.2128    5.7222    3.2871 H         1 ATP         0.0904
     47 H47        -1.5947    3.7835   -1.9255 H         1 ATP         0.5017
@<TRIPOS>BOND
     1    1    2 2
     2    1    3 1
     3    1    4 1
     4    1    8 1
     5    4   32 1
     6    5    6 2
     7    5    7 1
     8    5    8 1
     9    5   12 1
    10    7   33 1
    11    9   10 2
    12    9   11 1
    13    9   12 1
    14    9   13 1
    15   11   34 1
    16   13   14 1
    17   14   15 1
    18   14   35 1
    19   14   36 1
    20   15   16 1
    21   15   17 1
    22   15   37 1
    23   16   21 1
    24   17   18 1
    25   17   19 1
    26   17   38 1
    27   18   39 1
    28   19   20 1
    29   19   21 1
    30   19   40 1
    31   20   41 1
    32   21   22 1
    33   21   42 1
    34   22   23 ar
    35   22   31 ar
    36   23   24 ar
    37   23   43 1
    38   24   25 ar
    39   24   47 1
    40   25   26 ar
    41   25   31 ar
    42   26   27 1
    43   26   28 ar
    44   27   44 1
    45   27   45 1
    46   28   29 ar
    47   29   30 ar
    48   29   46 1
    49   30   31 ar
@<TRIPOS>SUBSTRUCTURE
     1 ATP         1 GROUP 0 A     ****
@<TRIPOS>MOLECULE
[[[5-(6-amino-7,8-dihydropurin-8-ylium-9-yl)-3,4-dihydroxy-tetrahydrofuran-2-yl]methoxy-hydroxy-phosphoryl]oxy-hydroxy-phosphoryl] hydrogen phosphate
   47    49     1     0     0
SMALL
USER_CHARGES

@<TRIPOS>ATOM
      1 PG          6.0796    1.5268   -4.5818 P.3       1 ATP         1.5449
      2 O1G         5.4087    1.5933   -3.2278 O.co2     1 ATP        -0.8177
      3 O2G         5.6159    2.4097   -5.7191 O.co2     1 ATP        -0.8177
      4 O3G         7.6840    1.7465   -4.3738 O.3       1 ATP        -0.7779
      5 PB          4.8985   -1.0269   -5.5100 P.3       1 ATP         1.9141
      6 O1B         4.0680   -0.5722   -6.6738 O.2       1 ATP        -0.8754
      7 O2B         5.6408   -2.4479   -5.7184 O.3       1 ATP        -0.8083
      8 O3B         6.0907   -0.0237   -5.0833 O.3       1 ATP        -0.8025
      9 PA          2.8569   -2.1455   -3.6982 P.3       1 ATP         1.8015
     10 O1A         3.0916   -3.6213   -3.8417 O.2       1 ATP        -0.8201
     11 O2A         1.6263   -1.5787   -4.5826 O.3       1 ATP        -0.8103
     12 O3A         4.1019   -1.2047   -4.1164 O.3       1 ATP        -0.8038
     13 O5'         2.5233   -1.6623   -2.1893 O.3       1 ATP        -0.5730
     14 C5'         2.2816   -0.2918   -1.9206 C.3       1 ATP         0.1929
     15 C4'         2.7248    0.0226   -0.4980 C.3       1 ATP         0.1044
     16 O4'         2.4697    1.4219   -0.2462 O.3       1 ATP        -0.4079
     17 C3'         1.9404   -0.7419    0.5596 C.3       1 ATP         0.1439
     18 O3'         2.7418   -0.8086    1.7389 O.3       1 ATP        -0.5593
     19 C2'         0.7477    0.1630    0.7858 C.3       1 ATP         0.0644
     20 O2'         0.1373   -0.0577    2.0407 O.3       1 ATP        -0.5595
     21 C1'         1.3733    1.5427    0.6747 C.3       1 ATP         0.3792
     22 N9          0.4520    2.5240    0.1767 N.pl3     1 ATP        -0.5557
     23 C8          0.1928    2.8484   -1.0815 C.ar      1 ATP         0.2849
     24 N7         -0.7248    3.8048   -1.2110 N.pl3     1 ATP        -0.5117
     25 C5         -1.0765    4.1129    0.0571 C.ar      1 ATP        -0.2787
     26 C6         -1.9614    5.0063    0.5851 C.ar      1 ATP         0.7736
     27 N6         -2.7145    5.8254   -0.2810 N.pl3     1 ATP        -0.9480
     28 N1         -2.1199    5.1113    1.9228 N.ar      1 ATP        -0.7442
     29 C2         -1.3522    4.2822    2.6839 C.ar      1 ATP         0.7202
     30 N3         -0.4501    3.3660    2.2638 N.ar      1 ATP        -0.6957
     31 C4         -0.3487    3.3198    0.9322 C.ar      1 ATP         0.6231
     32 HOG3        8.2640    1.7308   -5.1647 H         1 ATP         0.4452
     33 HOB2        5.0976   -3.2469   -5.8876 H         1 ATP         0.4969
     34 HOA2        1.6578   -1.6789   -5.5579 H         1 ATP         0.4779
     35 H5'1        2.8428    0.3149   -2.6387 H         1 ATP         0.0280
     36 H5'2        1.2124   -0.0897   -2.0417 H         1 ATP         0.0280
     37 H4'         3.8049   -0.1388   -0.4009 H         1 ATP         0.2049
     38 H3'         1.6783   -1.7629    0.2715 H         1 ATP         0.1077
     39 HO3'        2.2232   -1.2979    2.3953 H         1 ATP         0.4255
     40 H2'        -0.0011    0.0027    0.0003 H         1 ATP         0.0584
     41 HO2'       -0.6141    0.5574    2.1082 H         1 ATP         0.4149
     42 H1'         1.7826    1.9024    1.6451 H         1 ATP         0.1459
     43 H8          0.6728    2.3873   -1.9272 H         1 ATP         0.2739
     44 HN61       -2.5537    5.7714   -1.2667 H         1 ATP         0.4605
     45 HN62       -3.3283    6.5126    0.1080 H         1 ATP         0.4605
     46 H2         -1.4818    4.3694    3.7565 H         1 ATP         0.0904
     47 H47        -1.0701    4.2005   -2.0743 H         1 ATP         0.5017
@<TRIPOS>BOND
     1    1    2 2
     2    1    3 1
     3    1    4 1
     4    1    8 1
     5    4   32 1
     6    5    6 2
     7    5    7 1
     8    5    8 1
     9    5   12 1
    10    7   33 1
    11    9   10 2
    12    9   11 1
    13    9   12 1
    14    9   13 1
    15   11   34 1
    16   13   14 1
    17   14   15 1
    18   14   35 1
    19   14   36 1
    20   15   16 1
    21   15   17 1
    22   15   37 1
    23   16   21 1
    24   17   18 1
    25   17   19 1
    26   17   38 1
    27   18   39 1
    28   19   20 1
    29   19   21 1
    30   19   40 1
    31   20   41 1
    32   21   22 1
    33   21   42 1
    34   22   23 ar
    35   22   31 ar
    36   23   24 ar
    37   23   43 1
    38   24   25 ar
    39   24   47 1
    40   25   26 ar
    41   25   31 ar
    42   26   27 1
    43   26   28 ar
    44   27   44 1
    45   27   45 1
    46   28   29 ar
    47   29   30 ar
    48   29   46 1
    49   30   31 ar
@<TRIPOS>SUBSTRUCTURE
     1 ATP         1 GROUP 0 A     ****
@<TRIPOS>MOLECULE
[[[5-(6-amino-7,8-dihydropurin-8-ylium-9-yl)-3,4-dihydroxy-tetrahydrofuran-2-yl]methoxy-hydroxy-phosphoryl]oxy-hydroxy-phosphoryl] hydrogen phosphate
   47    49     1     0     0
SMALL
USER_CHARGES

@<TRIPOS>ATOM
      1 PG         -1.3520   -0.8580   -5.2807 P.3       1 ATP         1.5449
      2 O1G        -1.6239   -2.3368   -5.1154 O.co2     1 ATP        -0.8177
      3 O2G        -2.4510    0.0869   -5.7136 O.co2     1 ATP        -0.8177
      4 O3G        -0.6987   -0.2956   -3.8942 O.3       1 ATP        -0.7779
      5 PB          1.4227   -1.2867   -6.2270 P.3       1 ATP         1.9141
      6 O1B         1.4964   -2.7841   -6.2835 O.2       1 ATP        -0.8754
      7 O2B         2.1939   -0.5223   -7.4247 O.3       1 ATP        -0.8083
      8 O3B        -0.0700   -0.6704   -6.2692 O.3       1 ATP        -0.8025
      9 PA          3.4957   -0.6445   -4.2289 P.3       1 ATP         1.8015
     10 O1A         4.5940   -0.0911   -5.0900 O.2       1 ATP        -0.8201
     11 O2A         3.6994   -2.1925   -3.8046 O.3       1 ATP        -0.8103
     12 O3A         2.0205   -0.6125   -4.8867 O.3       1 ATP        -0.8038
     13 O5'         3.2874    0.1332   -2.8242 O.3       1 ATP        -0.5730
     14 C5'         2.2816   -0.2918   -1.9206 C.3       1 ATP         0.1929
     15 C4'         2.7248    0.0226   -0.4980 C.3       1 ATP         0.1044
     16 O4'         2.4697    1.4219   -0.2462 O.3       1 ATP        -0.4079
     17 C3'         1.9404   -0.7419    0.5596 C.3       1 ATP         0.1439
     18 O3'         2.7418   -0.8086    1.7389 O.3       1 ATP        -0.5593
     19 C2'         0.7477    0.1630    0.7858 C.3       1 ATP         0.0644
     20 O2'         0.1373   -0.0577    2.0407 O.3       1 ATP        -0.5595
     21 C1'         1.3733    1.5427    0.6747 C.3       1 ATP         0.3792
     22 N9          0.4520    2.5240    0.1767 N.pl3     1 ATP        -0.5557
     23 C8          0.1928    2.8484   -1.0815 C.ar      1 ATP         0.2849
     24 N7         -0.7248    3.8048   -1.2110 N.pl3     1 ATP        -0.5117
     25 C5         -1.0765    4.1129    0.0571 C.ar      1 ATP        -0.2787
     26 C6         -1.9614    5.0063    0.5851 C.ar      1 ATP         0.7736
     27 N6         -2.7145    5.8254   -0.2810 N.pl3     1 ATP        -0.9480
     28 N1         -2.1199    5.1113    1.9228 N.ar      1 ATP        -0.7442
     29 C2         -1.3522    4.2822    2.6839 C.ar      1 ATP         0.7202
     30 N3         -0.4501    3.3660    2.2638 N.ar      1 ATP        -0.6957
     31 C4         -0.3487    3.3198    0.9322 C.ar      1 ATP         0.6231
     32 HOG3       -0.4633    0.6552   -3.8409 H         1 ATP         0.4452
     33 HOB2        3.1589   -0.6608   -7.5325 H         1 ATP         0.4969
     34 HOA2        3.7592   -2.8731   -4.5084 H         1 ATP         0.4779
     35 H5'1        1.3494    0.2323   -2.1552 H         1 ATP         0.0280
     36 H5'2        2.1260   -1.3686   -2.0436 H         1 ATP         0.0280
     37 H4'         3.8049   -0.1388   -0.4009 H         1 ATP         0.2049
     38 H3'         1.6783   -1.7629    0.2715 H         1 ATP         0.1077
     39 HO3'        2.2232   -1.2979    2.3953 H         1 ATP         0.4255
     40 H2'        -0.0011    0.0027    0.0003 H         1 ATP         0.0584
     41 HO2'       -0.6141    0.5574    2.1082 H         1 ATP         0.4149
     42 H1'         1.7826    1.9024    1.6451 H         1 ATP         0.1459
     43 H8          0.6728    2.3873   -1.9272 H         1 ATP         0.2739
     44 HN61       -2.5537    5.7714   -1.2667 H         1 ATP         0.4605
     45 HN62       -3.3283    6.5126    0.1080 H         1 ATP         0.4605
     46 H2         -1.4818    4.3694    3.7565 H         1 ATP         0.0904
     47 H47        -1.0701    4.2005   -2.0743 H         1 ATP         0.5017
@<TRIPOS>BOND
     1    1    2 2
     2    1    3 1
     3    1    4 1
     4    1    8 1
     5    4   32 1
     6    5    6 2
     7    5    7 1
     8    5    8 1
     9    5   12 1
    10    7   33 1
    11    9   10 2
    12    9   11 1
    13    9   12 1
    14    9   13 1
    15   11   34 1
    16   13   14 1
    17   14   15 1
    18   14   35 1
    19   14   36 1
    20   15   16 1
    21   15   17 1
    22   15   37 1
    23   16   21 1
    24   17   18 1
    25   17   19 1
    26   17   38 1
    27   18   39 1
    28   19   20 1
    29   19   21 1
    30   19   40 1
    31   20   41 1
    32   21   22 1
    33   21   42 1
    34   22   23 ar
    35   22   31 ar
    36   23   24 ar
    37   23   43 1
    38   24   25 ar
    39   24   47 1
    40   25   26 ar
    41   25   31 ar
    42   26   27 1
    43   26   28 ar
    44   27   44 1
    45   27   45 1
    46   28   29 ar
    47   29   30 ar
    48   29   46 1
    49   30   31 ar
@<TRIPOS>SUBSTRUCTURE
     1 ATP         1 GROUP 0 A     ****
@<TRIPOS>MOLECULE
[[[5-(6-amino-7,8-dihydropurin-8-ylium-9-yl)-3,4-dihydroxy-tetrahydrofuran-2-yl]methoxy-hydroxy-phosphoryl]oxy-hydroxy-phosphoryl] hydrogen phosphate
   47    49     1     0     0
SMALL
USER_CHARGES

@<TRIPOS>ATOM
      1 PG          1.9013   -3.9529   -7.0049 P.3       1 ATP         1.5449
      2 O1G         0.4331   -4.2513   -7.2138 O.co2     1 ATP        -0.8177
      3 O2G         2.8362   -5.0114   -6.4632 O.co2     1 ATP        -0.8177
      4 O3G         2.5163   -3.3835   -8.4060 O.3       1 ATP        -0.7779
      5 PB          1.4097   -1.1283   -6.2579 P.3       1 ATP         1.9141
      6 O1B         1.7913   -0.4099   -7.5186 O.2       1 ATP        -0.8754
      7 O2B        -0.1787   -1.3532   -6.0578 O.3       1 ATP        -0.8083
      8 O3B         2.0362   -2.6083   -6.0941 O.3       1 ATP        -0.8025
      9 PA          3.3392   -0.0290   -4.3163 P.3       1 ATP         1.8015
     10 O1A         4.1272    0.9231   -5.1687 O.2       1 ATP        -0.8201
     11 O2A         4.0576   -1.4591   -4.0783 O.3       1 ATP        -0.8103
     12 O3A         1.8781   -0.4177   -4.8854 O.3       1 ATP        -0.8038
     13 O5'         3.0190    0.5130   -2.8246 O.3       1 ATP        -0.5730
     14 C5'         2.2816   -0.2918   -1.9206 C.3       1 ATP         0.1929
     15 C4'         2.7248    0.0226   -0.4980 C.3       1 ATP         0.1044
     16 O4'         2.4697    1.4219   -0.2462 O.3       1 ATP        -0.4079
     17 C3'         1.9404   -0.7419    0.5596 C.3       1 ATP         0.1439
     18 O3'         2.7418   -0.8086    1.7389 O.3       1 ATP        -0.5593
     19 C2'         0.7477    0.1630    0.7858 C.3       1 ATP         0.0644
     20 O2'         0.1373   -0.0577    2.0407 O.3       1 ATP        -0.5595
     21 C1'         1.3733    1.5427    0.6747 C.3       1 ATP         0.3792
     22 N9          0.4520    2.5240    0.1767 N.pl3     1 ATP        -0.5557
     23 C8          0.1928    2.8484   -1.0815 C.ar      1 ATP         0.2849
     24 N7         -0.7248    3.8048   -1.2110 N.pl3     1 ATP        -0.5117
     25 C5         -1.0765    4.1129    0.0571 C.ar      1 ATP        -0.2787
     26 C6         -1.9614    5.0063    0.5851 C.ar      1 ATP         0.7736
     27 N6         -2.7145    5.8254   -0.2810 N.pl3     1 ATP        -0.9480
     28 N1         -2.1199    5.1113    1.9228 N.ar      1 ATP        -0.7442
     29 C2         -1.3522    4.2822    2.6839 C.ar      1 ATP         0.7202
     30 N3         -0.4501    3.3660    2.2638 N.ar      1 ATP        -0.6957
     31 C4         -0.3487    3.3198    0.9322 C.ar      1 ATP         0.6231
     32 HOG3        3.4665   -3.1414   -8.4347 H         1 ATP         0.4452
     33 HOB2       -0.6730   -1.8710   -6.7283 H         1 ATP         0.4969
     34 HOA2        4.2678   -2.0191   -4.8556 H         1 ATP         0.4779
     35 H5'1        1.2149   -0.0786   -2.0446 H         1 ATP         0.0280
     36 H5'2        2.4641   -1.3459   -2.1539 H         1 ATP         0.0280
     37 H4'         3.8049   -0.1388   -0.4009 H         1 ATP         0.2049
     38 H3'         1.6783   -1.7629    0.2715 H         1 ATP         0.1077
     39 HO3'        2.2232   -1.2979    2.3953 H         1 ATP         0.4255
     40 H2'        -0.0011    0.0027    0.0003 H         1 ATP         0.0584
     41 HO2'       -0.6141    0.5574    2.1082 H         1 ATP         0.4149
     42 H1'         1.7826    1.9024    1.6451 H         1 ATP         0.1459
     43 H8          0.6728    2.3873   -1.9272 H         1 ATP         0.2739
     44 HN61       -2.5537    5.7714   -1.2667 H         1 ATP         0.4605
     45 HN62       -3.3283    6.5126    0.1080 H         1 ATP         0.4605
     46 H2         -1.4818    4.3694    3.7565 H         1 ATP         0.0904
     47 H47        -1.0701    4.2005   -2.0743 H         1 ATP         0.5017
@<TRIPOS>BOND
     1    1    2 2
     2    1    3 1
     3    1    4 1
     4    1    8 1
     5    4   32 1
     6    5    6 2
     7    5    7 1
     8    5    8 1
     9    5   12 1
    10    7   33 1
    11    9   10 2
    12    9   11 1
    13    9   12 1
    14    9   13 1
    15   11   34 1
    16   13   14 1
    17   14   15 1
    18   14   35 1
    19   14   36 1
    20   15   16 1
    21   15   17 1
    22   15   37 1
    23   16   21 1
    24   17   18 1
    25   17   19 1
    26   17   38 1
    27   18   39 1
    28   19   20 1
    29   19   21 1
    30   19   40 1
    31   20   41 1
    32   21   22 1
    33   21   42 1
    34   22   23 ar
    35   22   31 ar
    36   23   24 ar
    37   23   43 1
    38   24   25 ar
    39   24   47 1
    40   25   26 ar
    41   25   31 ar
    42   26   27 1
    43   26   28 ar
    44   27   44 1
    45   27   45 1
    46   28   29 ar
    47   29   30 ar
    48   29   46 1
    49   30   31 ar
@<TRIPOS>SUBSTRUCTURE
     1 ATP         1 GROUP 0 A     ****
@<TRIPOS>MOLECULE
[[[5-(6-amino-7,8-dihydropurin-8-ylium-9-yl)-3,4-dihydroxy-tetrahydrofuran-2-yl]methoxy-hydroxy-phosphoryl]oxy-hydroxy-phosphoryl] hydrogen phosphate
   47    49     1     0     0
SMALL
USER_CHARGES

@<TRIPOS>ATOM
      1 PG         -2.0324   -1.1744   -6.3936 P.3       1 ATP         1.5449
      2 O1G        -1.8010   -0.1020   -7.4350 O.co2     1 ATP        -0.8177
      3 O2G        -3.2088   -1.0918   -5.4464 O.co2     1 ATP        -0.8177
      4 O3G        -2.0706   -2.6233   -7.1451 O.3       1 ATP        -0.7779
      5 PB          0.8617   -1.6483   -5.9723 P.3       1 ATP         1.9141
      6 O1B         1.0766   -2.9184   -6.7415 O.2       1 ATP        -0.8754
      7 O2B         1.2977   -0.3000   -6.7505 O.3       1 ATP        -0.8083
      8 O3B        -0.6652   -1.3647   -5.5275 O.3       1 ATP        -0.8025
      9 PA          1.5750   -2.4636   -3.2285 P.3       1 ATP         1.8015
     10 O1A         1.9420   -3.9067   -3.4205 O.2       1 ATP        -0.8201
     11 O2A         0.0757   -2.2276   -2.6680 O.3       1 ATP        -0.8103
     12 O3A         1.6402   -1.5518   -4.5606 O.3       1 ATP        -0.8038
     13 O5'         2.5233   -1.6623   -2.1893 O.3       1 ATP        -0.5730
     14 C5'         2.2816   -0.2918   -1.9206 C.3       1 ATP         0.1929
     15 C4'         2.7248    0.0226   -0.4980 C.3       1 ATP         0.1044
     16 O4'         2.4697    1.4219   -0.2462 O.3       1 ATP        -0.4079
     17 C3'         1.9404   -0.7419    0.5596 C.3       1 ATP         0.1439
     18 O3'         2.7418   -0.8086    1.7389 O.3       1 ATP        -0.5593
     19 C2'         0.7477    0.1630    0.7858 C.3       1 ATP         0.0644
     20 O2'         0.1373   -0.0577    2.0407 O.3       1 ATP        -0.5595
     21 C1'         1.3733    1.5427    0.6747 C.3       1 ATP         0.3792
     22 N9          0.4520    2.5240    0.1767 N.pl3     1 ATP        -0.5557
     23 C8          0.1928    2.8484   -1.0815 C.ar      1 ATP         0.2849
     24 N7         -0.7248    3.8048   -1.2110 N.pl3     1 ATP        -0.5117
     25 C5         -1.0765    4.1129    0.0571 C.ar      1 ATP        -0.2787
     26 C6         -1.9614    5.0063    0.5851 C.ar      1 ATP         0.7736
     27 N6         -2.7145    5.8254   -0.2810 N.pl3     1 ATP        -0.9480
     28 N1         -2.1199    5.1113    1.9228 N.ar      1 ATP        -0.7442
     29 C2         -1.3522    4.2822    2.6839 C.ar      1 ATP         0.7202
     30 N3         -0.4501    3.3660    2.2638 N.ar      1 ATP        -0.6957
     31 C4         -0.3487    3.3198    0.9322 C.ar      1 ATP         0.6231
     32 HOG3       -2.2139   -3.4275   -6.6020 H         1 ATP         0.4452
     33 HOB2        0.8630   -0.0819   -7.6022 H         1 ATP         0.4969
     34 HOA2       -0.1714   -2.6105   -1.7994 H         1 ATP         0.4779
     35 H5'1        2.8428    0.3149   -2.6387 H         1 ATP         0.0280
     36 H5'2        1.2124   -0.0897   -2.0417 H         1 ATP         0.0280
     37 H4'         3.8049   -0.1388   -0.4009 H         1 ATP         0.2049
     38 H3'         1.6783   -1.7629    0.2715 H         1 ATP         0.1077
     39 HO3'        2.2232   -1.2979    2.3953 H         1 ATP         0.4255
     40 H2'        -0.0011    0.0027    0.0003 H         1 ATP         0.0584
     41 HO2'       -0.6141    0.5574    2.1082 H         1 ATP         0.4149
     42 H1'         1.7826    1.9024    1.6451 H         1 ATP         0.1459
     43 H8          0.6728    2.3873   -1.9272 H         1 ATP         0.2739
     44 HN61       -2.5537    5.7714   -1.2667 H         1 ATP         0.4605
     45 HN62       -3.3283    6.5126    0.1080 H         1 ATP         0.4605
     46 H2         -1.4818    4.3694    3.7565 H         1 ATP         0.0904
     47 H47        -1.0701    4.2005   -2.0743 H         1 ATP         0.5017
@<TRIPOS>BOND
     1    1    2 2
     2    1    3 1
     3    1    4 1
     4    1    8 1
     5    4   32 1
     6    5    6 2
     7    5    7 1
     8    5    8 1
     9    5   12 1
    10    7   33 1
    11    9   10 2
    12    9   11 1
    13    9   12 1
    14    9   13 1
    15   11   34 1
    16   13   14 1
    17   14   15 1
    18   14   35 1
    19   14   36 1
    20   15   16 1
    21   15   17 1
    22   15   37 1
    23   16   21 1
    24   17   18 1
    25   17   19 1
    26   17   38 1
    27   18   39 1
    28   19   20 1
    29   19   21 1
    30   19   40 1
    31   20   41 1
    32   21   22 1
    33   21   42 1
    34   22   23 ar
    35   22   31 ar
    36   23   24 ar
    37   23   43 1
    38   24   25 ar
    39   24   47 1
    40   25   26 ar
    41   25   31 ar
    42   26   27 1
    43   26   28 ar
    44   27   44 1
    45   27   45 1
    46   28   29 ar
    47   29   30 ar
    48   29   46 1
    49   30   31 ar
@<TRIPOS>SUBSTRUCTURE
     1 ATP         1 GROUP 0 A     ****
@<TRIPOS>MOLECULE
[[[5-(6-amino-7,8-dihydropurin-8-ylium-9-yl)-3,4-dihydroxy-tetrahydrofuran-2-yl]methoxy-hydroxy-phosphoryl]oxy-hydroxy-phosphoryl] hydrogen phosphate
   47    49     1     0     0
SMALL
USER_CHARGES

@<TRIPOS>ATOM
      1 PG         -2.6923    1.3448   -5.8123 P.3       1 ATP         1.5449
      2 O1G        -2.5118    2.3041   -6.9678 O.co2     1 ATP        -0.8177
      3 O2G        -3.6789    1.6440   -4.7055 O.co2     1 ATP        -0.8177
      4 O3G        -3.0227   -0.1352   -6.4175 O.3       1 ATP        -0.7779
      5 PB          0.1563    0.5300   -5.8039 P.3       1 ATP         1.9141
      6 O1B         0.0917   -0.8070   -6.4815 O.2       1 ATP        -0.8754
      7 O2B         0.6127    1.7538   -6.7565 O.3       1 ATP        -0.8083
      8 O3B        -1.2329    1.0390   -5.1549 O.3       1 ATP        -0.8025
      9 PA          2.7564    0.3912   -4.4176 P.3       1 ATP         1.8015
     10 O1A         3.6045    1.2999   -5.2596 O.2       1 ATP        -0.8201
     11 O2A         2.9489   -1.1831   -4.7370 O.3       1 ATP        -0.8103
     12 O3A         1.1624    0.6216   -4.5439 O.3       1 ATP        -0.8038
     13 O5'         3.0190    0.5130   -2.8246 O.3       1 ATP        -0.5730
     14 C5'         2.2816   -0.2918   -1.9206 C.3       1 ATP         0.1929
     15 C4'         2.7248    0.0226   -0.4980 C.3       1 ATP         0.1044
     16 O4'         2.4697    1.4219   -0.2462 O.3       1 ATP        -0.4079
     17 C3'         1.9404   -0.7419    0.5596 C.3       1 ATP         0.1439
     18 O3'         2.7418   -0.8086    1.7389 O.3       1 ATP        -0.5593
     19 C2'         0.7477    0.1630    0.7858 C.3       1 ATP         0.0644
     20 O2'         0.1373   -0.0577    2.0407 O.3       1 ATP        -0.5595
     21 C1'         1.3733    1.5427    0.6747 C.3       1 ATP         0.3792
     22 N9          0.4520    2.5240    0.1767 N.pl3     1 ATP        -0.5557
     23 C8          0.1928    2.8484   -1.0815 C.ar      1 ATP         0.2849
     24 N7         -0.7248    3.8048   -1.2110 N.pl3     1 ATP        -0.5117
     25 C5         -1.0765    4.1129    0.0571 C.ar      1 ATP        -0.2787
     26 C6         -1.9614    5.0063    0.5851 C.ar      1 ATP         0.7736
     27 N6         -2.7145    5.8254   -0.2810 N.pl3     1 ATP        -0.9480
     28 N1         -2.1199    5.1113    1.9228 N.ar      1 ATP        -0.7442
     29 C2         -1.3522    4.2822    2.6839 C.ar      1 ATP         0.7202
     30 N3         -0.4501    3.3660    2.2638 N.ar      1 ATP        -0.6957
     31 C4         -0.3487    3.3198    0.9322 C.ar      1 ATP         0.6231
     32 HOG3       -3.1676   -0.8748   -5.7896 H         1 ATP         0.4452
     33 HOB2        0.6750    2.6550   -6.3745 H         1 ATP         0.4969
     34 HOA2        2.7517   -1.5112   -5.6402 H         1 ATP         0.4779
     35 H5'1        1.2149   -0.0786   -2.0446 H         1 ATP         0.0280
     36 H5'2        2.4641   -1.3459   -2.1539 H         1 ATP         0.0280
     37 H4'         3.8049   -0.1388   -0.4009 H         1 ATP         0.2049
     38 H3'         1.6783   -1.7629    0.2715 H         1 ATP         0.1077
     39 HO3'        2.2232   -1.2979    2.3953 H         1 ATP         0.4255
     40 H2'        -0.0011    0.0027    0.0003 H         1 ATP         0.0584
     41 HO2'       -0.1563   -0.9855    2.0596 H         1 ATP         0.4149
     42 H1'         1.7826    1.9024    1.6451 H         1 ATP         0.1459
     43 H8          0.6728    2.3873   -1.9272 H         1 ATP         0.2739
     44 HN61       -2.5537    5.7714   -1.2667 H         1 ATP         0.4605
     45 HN62       -3.3283    6.5126    0.1080 H         1 ATP         0.4605
     46 H2         -1.4818    4.3694    3.7565 H         1 ATP         0.0904
     47 H47        -1.0701    4.2005   -2.0743 H         1 ATP         0.5017
@<TRIPOS>BOND
     1    1    2 2
     2    1    3 1
     3    1    4 1
     4    1    8 1
     5    4   32 1
     6    5    6 2
     7    5    7 1
     8    5    8 1
     9    5   12 1
    10    7   33 1
    11    9   10 2
    12    9   11 1
    13    9   12 1
    14    9   13 1
    15   11   34 1
    16   13   14 1
    17   14   15 1
    18   14   35 1
    19   14   36 1
    20   15   16 1
    21   15   17 1
    22   15   37 1
    23   16   21 1
    24   17   18 1
    25   17   19 1
    26   17   38 1
    27   18   39 1
    28   19   20 1
    29   19   21 1
    30   19   40 1
    31   20   41 1
    32   21   22 1
    33   21   42 1
    34   22   23 ar
    35   22   31 ar
    36   23   24 ar
    37   23   43 1
    38   24   25 ar
    39   24   47 1
    40   25   26 ar
    41   25   31 ar
    42   26   27 1
    43   26   28 ar
    44   27   44 1
    45   27   45 1
    46   28   29 ar
    47   29   30 ar
    48   29   46 1
    49   30   31 ar
@<TRIPOS>SUBSTRUCTURE
     1 ATP         1 GROUP 0 A     ****
@<TRIPOS>MOLECULE
[[[5-(6-amino-7,8-dihydropurin-8-ylium-9-yl)-3,4-dihydroxy-tetrahydrofuran-2-yl]methoxy-hydroxy-phosphoryl]oxy-hydroxy-phosphoryl] hydrogen phosphate
   47    49     1     0     0
SMALL
USER_CHARGES

@<TRIPOS>ATOM
      1 PG          4.1982   -3.0925   -7.4020 P.3       1 ATP         1.5449
      2 O1G         3.9149   -2.2525   -8.6276 O.co2     1 ATP        -0.8177
      3 O2G         4.2172   -4.6025   -7.4866 O.co2     1 ATP        -0.8177
      4 O3G         5.6072   -2.5905   -6.7473 O.3       1 ATP        -0.7779
      5 PB          2.8535   -1.1960   -5.5653 P.3       1 ATP         1.9141
      6 O1B         4.0244   -0.4969   -4.9398 O.2       1 ATP        -0.8754
      7 O2B         2.1390   -0.3836   -6.7666 O.3       1 ATP        -0.8083
      8 O3B         3.1808   -2.6396   -6.2122 O.3       1 ATP        -0.8025
      9 PA          1.5750   -2.4636   -3.2285 P.3       1 ATP         1.8015
     10 O1A         1.9420   -3.9067   -3.4205 O.2       1 ATP        -0.8201
     11 O2A         0.0757   -2.2276   -2.6680 O.3       1 ATP        -0.8103
     12 O3A         1.6402   -1.5518   -4.5606 O.3       1 ATP        -0.8038
     13 O5'         2.5233   -1.6623   -2.1893 O.3       1 ATP        -0.5730
     14 C5'         2.2816   -0.2918   -1.9206 C.3       1 ATP         0.1929
     15 C4'         2.7248    0.0226   -0.4980 C.3       1 ATP         0.1044
     16 O4'         2.4697    1.4219   -0.2462 O.3       1 ATP        -0.4079
     17 C3'         1.9404   -0.7419    0.5596 C.3       1 ATP         0.1439
     18 O3'         2.7418   -0.8086    1.7389 O.3       1 ATP        -0.5593
     19 C2'         0.7477    0.1630    0.7858 C.3       1 ATP         0.0644
     20 O2'         0.1373   -0.0577    2.0407 O.3       1 ATP        -0.5595
     21 C1'         1.3733    1.5427    0.6747 C.3       1 ATP         0.3792
     22 N9          0.4520    2.5240    0.1767 N.pl3     1 ATP        -0.5557
     23 C8          0.1928    2.8484   -1.0815 C.ar      1 ATP         0.2849
     24 N7         -0.7248    3.8048   -1.2110 N.pl3     1 ATP        -0.5117
     25 C5         -1.0765    4.1129    0.0571 C.ar      1 ATP        -0.2787
     26 C6         -1.9614    5.0063    0.5851 C.ar      1 ATP         0.7736
     27 N6         -2.7145    5.8254   -0.2810 N.pl3     1 ATP        -0.9480
     28 N1         -2.1199    5.1113    1.9228 N.ar      1 ATP        -0.7442
     29 C2         -1.3522    4.2822    2.6839 C.ar      1 ATP         0.7202
     30 N3         -0.4501    3.3660    2.2638 N.ar      1 ATP        -0.6957
     31 C4         -0.3487    3.3198    0.9322 C.ar      1 ATP         0.6231
     32 HOG3        5.9327   -3.0401   -5.9385 H         1 ATP         0.4452
     33 HOB2        2.6658   -0.1489   -7.5600 H         1 ATP         0.4969
     34 HOA2       -0.1714   -2.6105   -1.7994 H         1 ATP         0.4779
     35 H5'1        2.8428    0.3149   -2.6387 H         1 ATP         0.0280
     36 H5'2        1.2124   -0.0897   -2.0417 H         1 ATP         0.0280
     37 H4'         3.8049   -0.1388   -0.4009 H         1 ATP         0.2049
     38 H3'         1.6783   -1.7629    0.2715 H         1 ATP         0.1077
     39 HO3'        2.2232   -1.2979    2.3953 H         1 ATP         0.4255
     40 H2'        -0.0011    0.0027    0.0003 H         1 ATP         0.0584
     41 HO2'       -0.1563   -0.9855    2.0596 H         1 ATP         0.4149
     42 H1'         1.7826    1.9024    1.6451 H         1 ATP         0.1459
     43 H8          0.6728    2.3873   -1.9272 H         1 ATP         0.2739
     44 HN61       -2.5537    5.7714   -1.2667 H         1 ATP         0.4605
     45 HN62       -3.3283    6.5126    0.1080 H         1 ATP         0.4605
     46 H2         -1.4818    4.3694    3.7565 H         1 ATP         0.0904
     47 H47        -1.0701    4.2005   -2.0743 H         1 ATP         0.5017
@<TRIPOS>BOND
     1    1    2 2
     2    1    3 1
     3    1    4 1
     4    1    8 1
     5    4   32 1
     6    5    6 2
     7    5    7 1
     8    5    8 1
     9    5   12 1
    10    7   33 1
    11    9   10 2
    12    9   11 1
    13    9   12 1
    14    9   13 1
    15   11   34 1
    16   13   14 1
    17   14   15 1
    18   14   35 1
    19   14   36 1
    20   15   16 1
    21   15   17 1
    22   15   37 1
    23   16   21 1
    24   17   18 1
    25   17   19 1
    26   17   38 1
    27   18   39 1
    28   19   20 1
    29   19   21 1
    30   19   40 1
    31   20   41 1
    32   21   22 1
    33   21   42 1
    34   22   23 ar
    35   22   31 ar
    36   23   24 ar
    37   23   43 1
    38   24   25 ar
    39   24   47 1
    40   25   26 ar
    41   25   31 ar
    42   26   27 1
    43   26   28 ar
    44   27   44 1
    45   27   45 1
    46   28   29 ar
    47   29   30 ar
    48   29   46 1
    49   30   31 ar
@<TRIPOS>SUBSTRUCTURE
     1 ATP         1 GROUP 0 A     ****
@<TRIPOS>MOLECULE
[[[5-(6-amino-7,8-dihydropurin-8-ylium-9-yl)-3,4-dihydroxy-tetrahydrofuran-2-yl]methoxy-hydroxy-phosphoryl]oxy-hydroxy-phosphoryl] hydrogen phosphate
   47    49     1     0     0
SMALL
USER_CHARGES

@<TRIPOS>ATOM
      1 PG         -1.3947    1.5282   -6.6714 P.3       1 ATP         1.5449
      2 O1G        -2.4068    2.4906   -6.0906 O.co2     1 ATP        -0.8177
      3 O2G        -1.7975    0.1228   -7.0592 O.co2     1 ATP        -0.8177
      4 O3G        -0.6859    2.2399   -7.9586 O.3       1 ATP        -0.7779
      5 PB          0.8366    2.6071   -5.0480 P.3       1 ATP         1.9141
      6 O1B         1.5648    3.4489   -6.0540 O.2       1 ATP        -0.8754
      7 O2B        -0.1462    3.4264   -4.0598 O.3       1 ATP        -0.8083
      8 O3B        -0.1096    1.4559   -5.6718 O.3       1 ATP        -0.8025
      9 PA          2.8849    0.6141   -4.3169 P.3       1 ATP         1.8015
     10 O1A         4.0462    1.0377   -5.1688 O.2       1 ATP        -0.8201
     11 O2A         2.0328   -0.6216   -4.9208 O.3       1 ATP        -0.8103
     12 O3A         1.7748    1.7562   -4.0460 O.3       1 ATP        -0.8038
     13 O5'         3.2874    0.1332   -2.8242 O.3       1 ATP        -0.5730
     14 C5'         2.2816   -0.2918   -1.9206 C.3       1 ATP         0.1929
     15 C4'         2.7248    0.0226   -0.4980 C.3       1 ATP         0.1044
     16 O4'         2.4697    1.4219   -0.2462 O.3       1 ATP        -0.4079
     17 C3'         1.9404   -0.7419    0.5596 C.3       1 ATP         0.1439
     18 O3'         2.7418   -0.8086    1.7389 O.3       1 ATP        -0.5593
     19 C2'         0.7477    0.1630    0.7858 C.3       1 ATP         0.0644
     20 O2'         0.1373   -0.0577    2.0407 O.3       1 ATP        -0.5595
     21 C1'         1.3733    1.5427    0.6747 C.3       1 ATP         0.3792
     22 N9          0.4520    2.5240    0.1767 N.pl3     1 ATP        -0.5557
     23 C8         -0.2172    2.5216   -0.9668 C.ar      1 ATP         0.2849
     24 N7         -1.0011    3.5855   -1.1321 N.pl3     1 ATP        -0.5117
     25 C5         -0.8184    4.3200   -0.0123 C.ar      1 ATP        -0.2787
     26 C6         -1.3349    5.5079    0.4144 C.ar      1 ATP         0.7736
     27 N6         -2.2567    6.1930   -0.4036 N.pl3     1 ATP        -0.9480
     28 N1         -0.9716    6.0291    1.6069 N.ar      1 ATP        -0.7442
     29 C2         -0.0765    5.3009    2.3312 C.ar      1 ATP         0.7202
     30 N3          0.4933    4.1191    2.0023 N.ar      1 ATP        -0.6957
     31 C4          0.0865    3.6675    0.8123 C.ar      1 ATP         0.6231
     32 HOG3        0.0005    1.7399   -8.4495 H         1 ATP         0.4452
     33 HOB2       -0.8855    3.9422   -4.4463 H         1 ATP         0.4969
     34 HOA2        1.6061   -0.5193   -5.7981 H         1 ATP         0.4779
     35 H5'1        1.3494    0.2323   -2.1552 H         1 ATP         0.0280
     36 H5'2        2.1260   -1.3686   -2.0436 H         1 ATP         0.0280
     37 H4'         3.8049   -0.1388   -0.4009 H         1 ATP         0.2049
     38 H3'         1.6783   -1.7629    0.2715 H         1 ATP         0.1077
     39 HO3'        2.2232   -1.2979    2.3953 H         1 ATP         0.4255
     40 H2'        -0.0011    0.0027    0.0003 H         1 ATP         0.0584
     41 HO2'       -0.6141    0.5574    2.1082 H         1 ATP         0.4149
     42 H1'         1.7826    1.9024    1.6451 H         1 ATP         0.1459
     43 H8         -0.1423    1.7373   -1.6999 H         1 ATP         0.2739
     44 HN61       -2.4811    5.8206   -1.3042 H         1 ATP         0.4605
     45 HN62       -2.5986    7.0863   -0.1113 H         1 ATP         0.4605
     46 H2          0.2128    5.7222    3.2871 H         1 ATP         0.0904
     47 H47        -1.5947    3.7835   -1.9255 H         1 ATP         0.5017
@<TRIPOS>BOND
     1    1    2 2
     2    1    3 1
     3    1    4 1
     4    1    8 1
     5    4   32 1
     6    5    6 2
     7    5    7 1
     8    5    8 1
     9    5   12 1
    10    7   33 1
    11    9   10 2
    12    9   11 1
    13    9   12 1
    14    9   13 1
    15   11   34 1
    16   13   14 1
    17   14   15 1
    18   14   35 1
    19   14   36 1
    20   15   16 1
    21   15   17 1
    22   15   37 1
    23   16   21 1
    24   17   18 1
    25   17   19 1
    26   17   38 1
    27   18   39 1
    28   19   20 1
    29   19   21 1
    30   19   40 1
    31   20   41 1
    32   21   22 1
    33   21   42 1
    34   22   23 ar
    35   22   31 ar
    36   23   24 ar
    37   23   43 1
    38   24   25 ar
    39   24   47 1
    40   25   26 ar
    41   25   31 ar
    42   26   27 1
    43   26   28 ar
    44   27   44 1
    45   27   45 1
    46   28   29 ar
    47   29   30 ar
    48   29   46 1
    49   30   31 ar
@<TRIPOS>SUBSTRUCTURE
     1 ATP         1 GROUP 0 A     ****
@<TRIPOS>MOLECULE
[[[5-(6-amino-7,8-dihydropurin-8-ylium-9-yl)-3,4-dihydroxy-tetrahydrofuran-2-yl]methoxy-hydroxy-phosphoryl]oxy-hydroxy-phosphoryl] hydrogen phosphate
   47    49     1     0     0
SMALL
USER_CHARGES

@<TRIPOS>ATOM
      1 PG         -1.6779    2.3889   -6.3591 P.3       1 ATP         1.5449
      2 O1G        -2.6333    1.2948   -6.7813 O.co2     1 ATP        -0.8177
      3 O2G        -1.1337    3.3734   -7.3703 O.co2     1 ATP        -0.8177
      4 O3G        -2.3604    3.2252   -5.1342 O.3       1 ATP        -0.7779
      5 PB          0.7497    0.7223   -6.0312 P.3       1 ATP         1.9141
      6 O1B         0.2935   -0.5925   -6.5917 O.2       1 ATP        -0.8754
      7 O2B         1.6281    1.6253   -7.0444 O.3       1 ATP        -0.8083
      8 O3B        -0.4334    1.7128   -5.5529 O.3       1 ATP        -0.8025
      9 PA          3.0863   -0.0757   -4.4171 P.3       1 ATP         1.8015
     10 O1A         4.2268    0.4190   -5.2587 O.2       1 ATP        -0.8201
     11 O2A         2.7768   -1.6555   -4.5790 O.3       1 ATP        -0.8103
     12 O3A         1.6615    0.6308   -4.7014 O.3       1 ATP        -0.8038
     13 O5'         3.2874    0.1332   -2.8242 O.3       1 ATP        -0.5730
     14 C5'         2.2816   -0.2918   -1.9206 C.3       1 ATP         0.1929
     15 C4'         2.7248    0.0226   -0.4980 C.3       1 ATP         0.1044
     16 O4'         2.4697    1.4219   -0.2462 O.3       1 ATP        -0.4079
     17 C3'         1.9404   -0.7419    0.5596 C.3       1 ATP         0.1439
     18 O3'         2.7418   -0.8086    1.7389 O.3       1 ATP        -0.5593
     19 C2'         0.7477    0.1630    0.7858 C.3       1 ATP         0.0644
     20 O2'         0.1373   -0.0577    2.0407 O.3       1 ATP        -0.5595
     21 C1'         1.3733    1.5427    0.6747 C.3       1 ATP         0.3792
     22 N9          0.4520    2.5240    0.1767 N.pl3     1 ATP        -0.5557
     23 C8          0.1928    2.8484   -1.0815 C.ar      1 ATP         0.2849
     24 N7         -0.7248    3.8048   -1.2110 N.pl3     1 ATP        -0.5117
     25 C5         -1.0765    4.1129    0.0571 C.ar      1 ATP        -0.2787
     26 C6         -1.9614    5.0063    0.5851 C.ar      1 ATP         0.7736
     27 N6         -2.7145    5.8254   -0.2810 N.pl3     1 ATP        -0.9480
     28 N1         -2.1199    5.1113    1.9228 N.ar      1 ATP        -0.7442
     29 C2         -1.3522    4.2822    2.6839 C.ar      1 ATP         0.7202
     30 N3         -0.4501    3.3660    2.2638 N.ar      1 ATP        -0.6957
     31 C4         -0.3487    3.3198    0.9322 C.ar      1 ATP         0.6231
     32 HOG3       -1.8614    3.9750   -4.7456 H         1 ATP         0.4452
     33 HOB2        1.9575    2.4972   -6.7391 H         1 ATP         0.4969
     34 HOA2        2.5334   -2.0027   -5.4635 H         1 ATP         0.4779
     35 H5'1        1.3494    0.2323   -2.1552 H         1 ATP         0.0280
     36 H5'2        2.1260   -1.3686   -2.0436 H         1 ATP         0.0280
     37 H4'         3.8049   -0.1388   -0.4009 H         1 ATP         0.2049
     38 H3'         1.6783   -1.7629    0.2715 H         1 ATP         0.1077
     39 HO3'        2.2232   -1.2979    2.3953 H         1 ATP         0.4255
     40 H2'        -0.0011    0.0027    0.0003 H         1 ATP         0.0584
     41 HO2'       -0.6141    0.5574    2.1082 H         1 ATP         0.4149
     42 H1'         1.7826    1.9024    1.6451 H         1 ATP         0.1459
     43 H8          0.6728    2.3873   -1.9272 H         1 ATP         0.2739
     44 HN61       -2.5537    5.7714   -1.2667 H         1 ATP         0.4605
     45 HN62       -3.3283    6.5126    0.1080 H         1 ATP         0.4605
     46 H2         -1.4818    4.3694    3.7565 H         1 ATP         0.0904
     47 H47        -1.0701    4.2005   -2.0743 H         1 ATP         0.5017
@<TRIPOS>BOND
     1    1    2 2
     2    1    3 1
     3    1    4 1
     4    1    8 1
     5    4   32 1
     6    5    6 2
     7    5    7 1
     8    5    8 1
     9    5   12 1
    10    7   33 1
    11    9   10 2
    12    9   11 1
    13    9   12 1
    14    9   13 1
    15   11   34 1
    16   13   14 1
    17   14   15 1
    18   14   35 1
    19   14   36 1
    20   15   16 1
    21   15   17 1
    22   15   37 1
    23   16   21 1
    24   17   18 1
    25   17   19 1
    26   17   38 1
    27   18   39 1
    28   19   20 1
    29   19   21 1
    30   19   40 1
    31   20   41 1
    32   21   22 1
    33   21   42 1
    34   22   23 ar
    35   22   31 ar
    36   23   24 ar
    37   23   43 1
    38   24   25 ar
    39   24   47 1
    40   25   26 ar
    41   25   31 ar
    42   26   27 1
    43   26   28 ar
    44   27   44 1
    45   27   45 1
    46   28   29 ar
    47   29   30 ar
    48   29   46 1
    49   30   31 ar
@<TRIPOS>SUBSTRUCTURE
     1 ATP         1 GROUP 0 A     ****
@<TRIPOS>MOLECULE
[[[5-(6-amino-7,8-dihydropurin-8-ylium-9-yl)-3,4-dihydroxy-tetrahydrofuran-2-yl]methoxy-hydroxy-phosphoryl]oxy-hydroxy-phosphoryl] hydrogen phosphate
   47    49     1     0     0
SMALL
USER_CHARGES

@<TRIPOS>ATOM
      1 PG         -0.0143   -2.3805   -5.2762 P.3       1 ATP         1.5449
      2 O1G         0.2004   -2.0347   -3.8194 O.co2     1 ATP        -0.8177
      3 O2G         0.7195   -3.5401   -5.9123 O.co2     1 ATP        -0.8177
      4 O3G        -1.6153   -2.5764   -5.5292 O.3       1 ATP        -0.7779
      5 PB          0.1563    0.5300   -5.8039 P.3       1 ATP         1.9141
      6 O1B         0.4562    1.4657   -6.9377 O.2       1 ATP        -0.8754
      7 O2B        -1.3096    0.7074   -5.1456 O.3       1 ATP        -0.8083
      8 O3B         0.2302   -1.0412   -6.1720 O.3       1 ATP        -0.8025
      9 PA          2.7564    0.3912   -4.4176 P.3       1 ATP         1.8015
     10 O1A         3.6045    1.2999   -5.2596 O.2       1 ATP        -0.8201
     11 O2A         2.9489   -1.1831   -4.7370 O.3       1 ATP        -0.8103
     12 O3A         1.1624    0.6216   -4.5439 O.3       1 ATP        -0.8038
     13 O5'         3.0190    0.5130   -2.8246 O.3       1 ATP        -0.5730
     14 C5'         2.2816   -0.2918   -1.9206 C.3       1 ATP         0.1929
     15 C4'         2.7248    0.0226   -0.4980 C.3       1 ATP         0.1044
     16 O4'         2.4697    1.4219   -0.2462 O.3       1 ATP        -0.4079
     17 C3'         1.9404   -0.7419    0.5596 C.3       1 ATP         0.1439
     18 O3'         2.7418   -0.8086    1.7389 O.3       1 ATP        -0.5593
     19 C2'         0.7477    0.1630    0.7858 C.3       1 ATP         0.0644
     20 O2'         0.1373   -0.0577    2.0407 O.3       1 ATP        -0.5595
     21 C1'         1.3733    1.5427    0.6747 C.3       1 ATP         0.3792
     22 N9          0.4520    2.5240    0.1767 N.pl3     1 ATP        -0.5557
     23 C8          0.1928    2.8484   -1.0815 C.ar      1 ATP         0.2849
     24 N7         -0.7248    3.8048   -1.2110 N.pl3     1 ATP        -0.5117
     25 C5         -1.0765    4.1129    0.0571 C.ar      1 ATP        -0.2787
     26 C6         -1.9614    5.0063    0.5851 C.ar      1 ATP         0.7736
     27 N6         -2.7145    5.8254   -0.2810 N.pl3     1 ATP        -0.9480
     28 N1         -2.1199    5.1113    1.9228 N.ar      1 ATP        -0.7442
     29 C2         -1.3522    4.2822    2.6839 C.ar      1 ATP         0.7202
     30 N3         -0.4501    3.3660    2.2638 N.ar      1 ATP        -0.6957
     31 C4         -0.3487    3.3198    0.9322 C.ar      1 ATP         0.6231
     32 HOG3       -1.9207   -2.8058   -6.4327 H         1 ATP         0.4452
     33 HOB2       -2.1018    0.5816   -5.7101 H         1 ATP         0.4969
     34 HOA2        2.7517   -1.5112   -5.6402 H         1 ATP         0.4779
     35 H5'1        1.2149   -0.0786   -2.0446 H         1 ATP         0.0280
     36 H5'2        2.4641   -1.3459   -2.1539 H         1 ATP         0.0280
     37 H4'         3.8049   -0.1388   -0.4009 H         1 ATP         0.2049
     38 H3'         1.6783   -1.7629    0.2715 H         1 ATP         0.1077
     39 HO3'        2.2232   -1.2979    2.3953 H         1 ATP         0.4255
     40 H2'        -0.0011    0.0027    0.0003 H         1 ATP         0.0584
     41 HO2'       -0.1563   -0.9855    2.0596 H         1 ATP         0.4149
     42 H1'         1.7826    1.9024    1.6451 H         1 ATP         0.1459
     43 H8          0.6728    2.3873   -1.9272 H         1 ATP         0.2739
     44 HN61       -2.5537    5.7714   -1.2667 H         1 ATP         0.4605
     45 HN62       -3.3283    6.5126    0.1080 H         1 ATP         0.4605
     46 H2         -1.4818    4.3694    3.7565 H         1 ATP         0.0904
     47 H47        -1.0701    4.2005   -2.0743 H         1 ATP         0.5017
@<TRIPOS>BOND
     1    1    2 2
     2    1    3 1
     3    1    4 1
     4    1    8 1
     5    4   32 1
     6    5    6 2
     7    5    7 1
     8    5    8 1
     9    5   12 1
    10    7   33 1
    11    9   10 2
    12    9   11 1
    13    9   12 1
    14    9   13 1
    15   11   34 1
    16   13   14 1
    17   14   15 1
    18   14   35 1
    19   14   36 1
    20   15   16 1
    21   15   17 1
    22   15   37 1
    23   16   21 1
    24   17   18 1
    25   17   19 1
    26   17   38 1
    27   18   39 1
    28   19   20 1
    29   19   21 1
    30   19   40 1
    31   20   41 1
    32   21   22 1
    33   21   42 1
    34   22   23 ar
    35   22   31 ar
    36   23   24 ar
    37   23   43 1
    38   24   25 ar
    39   24   47 1
    40   25   26 ar
    41   25   31 ar
    42   26   27 1
    43   26   28 ar
    44   27   44 1
    45   27   45 1
    46   28   29 ar
    47   29   30 ar
    48   29   46 1
    49   30   31 ar
@<TRIPOS>SUBSTRUCTURE
     1 ATP         1 GROUP 0 A     ****
@<TRIPOS>MOLECULE
[[[5-(6-amino-7,8-dihydropurin-8-ylium-9-yl)-3,4-dihydroxy-tetrahydrofuran-2-yl]methoxy-hydroxy-phosphoryl]oxy-hydroxy-phosphoryl] hydrogen phosphate
   47    49     1     0     0
SMALL
USER_CHARGES

@<TRIPOS>ATOM
      1 PG          4.8129    5.1499   -4.9519 P.3       1 ATP         1.5449
      2 O1G         3.9323    6.3788   -4.9009 O.co2     1 ATP        -0.8177
      3 O2G         5.7198    4.8969   -6.1357 O.co2     1 ATP        -0.8177
      4 O3G         5.7107    5.1019   -3.5892 O.3       1 ATP        -0.7779
      5 PB          2.8456    3.4554   -3.5248 P.3       1 ATP         1.9141
      6 O1B         3.4335    3.4034   -2.1455 O.2       1 ATP        -0.8754
      7 O2B         1.6432    4.5198   -3.7117 O.3       1 ATP        -0.8083
      8 O3B         3.8862    3.8330   -4.7013 O.3       1 ATP        -0.8025
      9 PA          2.8849    0.6141   -4.3169 P.3       1 ATP         1.8015
     10 O1A         4.0138    0.5846   -5.3061 O.2       1 ATP        -0.8201
     11 O2A         1.6272   -0.3226   -4.7151 O.3       1 ATP        -0.8103
     12 O3A         2.2239    2.0669   -4.0670 O.3       1 ATP        -0.8038
     13 O5'         3.2874    0.1332   -2.8242 O.3       1 ATP        -0.5730
     14 C5'         2.2816   -0.2918   -1.9206 C.3       1 ATP         0.1929
     15 C4'         2.7248    0.0226   -0.4980 C.3       1 ATP         0.1044
     16 O4'         2.4697    1.4219   -0.2462 O.3       1 ATP        -0.4079
     17 C3'         1.9404   -0.7419    0.5596 C.3       1 ATP         0.1439
     18 O3'         2.7418   -0.8086    1.7389 O.3       1 ATP        -0.5593
     19 C2'         0.7477    0.1630    0.7858 C.3       1 ATP         0.0644
     20 O2'         0.1373   -0.0577    2.0407 O.3       1 ATP        -0.5595
     21 C1'         1.3733    1.5427    0.6747 C.3       1 ATP         0.3792
     22 N9          0.4520    2.5240    0.1767 N.pl3     1 ATP        -0.5557
     23 C8         -0.2172    2.5216   -0.9668 C.ar      1 ATP         0.2849
     24 N7         -1.0011    3.5855   -1.1321 N.pl3     1 ATP        -0.5117
     25 C5         -0.8184    4.3200   -0.0123 C.ar      1 ATP        -0.2787
     26 C6         -1.3349    5.5079    0.4144 C.ar      1 ATP         0.7736
     27 N6         -2.2567    6.1930   -0.4036 N.pl3     1 ATP        -0.9480
     28 N1         -0.9716    6.0291    1.6069 N.ar      1 ATP        -0.7442
     29 C2         -0.0765    5.3009    2.3312 C.ar      1 ATP         0.7202
     30 N3          0.4933    4.1191    2.0023 N.ar      1 ATP        -0.6957
     31 C4          0.0865    3.6675    0.8123 C.ar      1 ATP         0.6231
     32 HOG3        6.3389    4.3581   -3.4697 H         1 ATP         0.4452
     33 HOB2        1.8203    5.4700   -3.5450 H         1 ATP         0.4969
     34 HOA2        1.7696   -1.2871   -4.8221 H         1 ATP         0.4779
     35 H5'1        1.3494    0.2323   -2.1552 H         1 ATP         0.0280
     36 H5'2        2.1260   -1.3686   -2.0436 H         1 ATP         0.0280
     37 H4'         3.8049   -0.1388   -0.4009 H         1 ATP         0.2049
     38 H3'         1.6783   -1.7629    0.2715 H         1 ATP         0.1077
     39 HO3'        3.5554   -1.2733    1.4914 H         1 ATP         0.4255
     40 H2'        -0.0011    0.0027    0.0003 H         1 ATP         0.0584
     41 HO2'       -0.1563   -0.9855    2.0596 H         1 ATP         0.4149
     42 H1'         1.7826    1.9024    1.6451 H         1 ATP         0.1459
     43 H8         -0.1423    1.7373   -1.6999 H         1 ATP         0.2739
     44 HN61       -2.4811    5.8206   -1.3042 H         1 ATP         0.4605
     45 HN62       -2.5986    7.0863   -0.1113 H         1 ATP         0.4605
     46 H2          0.2128    5.7222    3.2871 H         1 ATP         0.0904
     47 H47        -1.5947    3.7835   -1.9255 H         1 ATP         0.5017
@<TRIPOS>BOND
     1    1    2 2
     2    1    3 1
     3    1    4 1
     4    1    8 1
     5    4   32 1
     6    5    6 2
     7    5    7 1
     8    5    8 1
     9    5   12 1
    10    7   33 1
    11    9   10 2
    12    9   11 1
    13    9   12 1
    14    9   13 1
    15   11   34 1
    16   13   14 1
    17   14   15 1
    18   14   35 1
    19   14   36 1
    20   15   16 1
    21   15   17 1
    22   15   37 1
    23   16   21 1
    24   17   18 1
    25   17   19 1
    26   17   38 1
    27   18   39 1
    28   19   20 1
    29   19   21 1
    30   19   40 1
    31   20   41 1
    32   21   22 1
    33   21   42 1
    34   22   23 ar
    35   22   31 ar
    36   23   24 ar
    37   23   43 1
    38   24   25 ar
    39   24   47 1
    40   25   26 ar
    41   25   31 ar
    42   26   27 1
    43   26   28 ar
    44   27   44 1
    45   27   45 1
    46   28   29 ar
    47   29   30 ar
    48   29   46 1
    49   30   31 ar
@<TRIPOS>SUBSTRUCTURE
     1 ATP         1 GROUP 0 A     ****
@<TRIPOS>MOLECULE
[[[5-(6-amino-7,8-dihydropurin-8-ylium-9-yl)-3,4-dihydroxy-tetrahydrofuran-2-yl]methoxy-hydroxy-phosphoryl]oxy-hydroxy-phosphoryl] hydrogen phosphate
   47    49     1     0     0
SMALL
USER_CHARGES

@<TRIPOS>ATOM
      1 PG          1.0967    3.1474   -6.8254 P.3       1 ATP         1.5449
      2 O1G         1.6532    3.5804   -8.1636 O.co2     1 ATP        -0.8177
      3 O2G         1.8023    3.5144   -5.5388 O.co2     1 ATP        -0.8177
      4 O3G        -0.4555    3.6441   -6.7272 O.3       1 ATP        -0.7779
      5 PB          0.1563    0.5300   -5.8039 P.3       1 ATP         1.9141
      6 O1B        -1.2840    0.8218   -5.5013 O.2       1 ATP        -0.8754
      7 O2B         0.4376   -0.9374   -6.4212 O.3       1 ATP        -0.8083
      8 O3B         0.8543    1.5362   -6.8576 O.3       1 ATP        -0.8025
      9 PA          2.7564    0.3912   -4.4176 P.3       1 ATP         1.8015
     10 O1A         3.6045    1.2999   -5.2596 O.2       1 ATP        -0.8201
     11 O2A         2.9489   -1.1831   -4.7370 O.3       1 ATP        -0.8103
     12 O3A         1.1624    0.6216   -4.5439 O.3       1 ATP        -0.8038
     13 O5'         3.0190    0.5130   -2.8246 O.3       1 ATP        -0.5730
     14 C5'         2.2816   -0.2918   -1.9206 C.3       1 ATP         0.1929
     15 C4'         2.7248    0.0226   -0.4980 C.3       1 ATP         0.1044
     16 O4'         2.4697    1.4219   -0.2462 O.3       1 ATP        -0.4079
     17 C3'         1.9404   -0.7419    0.5596 C.3       1 ATP         0.1439
     18 O3'         2.7418   -0.8086    1.7389 O.3       1 ATP        -0.5593
     19 C2'         0.7477    0.1630    0.7858 C.3       1 ATP         0.0644
     20 O2'         0.1373   -0.0577    2.0407 O.3       1 ATP        -0.5595
     21 C1'         1.3733    1.5427    0.6747 C.3       1 ATP         0.3792
     22 N9          0.4520    2.5240    0.1767 N.pl3     1 ATP        -0.5557
     23 C8          0.1928    2.8484   -1.0815 C.ar      1 ATP         0.2849
     24 N7         -0.7248    3.8048   -1.2110 N.pl3     1 ATP        -0.5117
     25 C5         -1.0765    4.1129    0.0571 C.ar      1 ATP        -0.2787
     26 C6         -1.9614    5.0063    0.5851 C.ar      1 ATP         0.7736
     27 N6         -2.7145    5.8254   -0.2810 N.pl3     1 ATP        -0.9480
     28 N1         -2.1199    5.1113    1.9228 N.ar      1 ATP        -0.7442
     29 C2         -1.3522    4.2822    2.6839 C.ar      1 ATP         0.7202
     30 N3         -0.4501    3.3660    2.2638 N.ar      1 ATP        -0.6957
     31 C4         -0.3487    3.3198    0.9322 C.ar      1 ATP         0.6231
     32 HOG3       -0.9610    3.4386   -5.9120 H         1 ATP         0.4452
     33 HOB2        1.3592   -1.1910   -6.6413 H         1 ATP         0.4969
     34 HOA2        3.8370   -1.5843   -4.6259 H         1 ATP         0.4779
     35 H5'1        1.2149   -0.0786   -2.0446 H         1 ATP         0.0280
     36 H5'2        2.4641   -1.3459   -2.1539 H         1 ATP         0.0280
     37 H4'         3.8049   -0.1388   -0.4009 H         1 ATP         0.2049
     38 H3'         1.6783   -1.7629    0.2715 H         1 ATP         0.1077
     39 HO3'        2.2232   -1.2979    2.3953 H         1 ATP         0.4255
     40 H2'        -0.0011    0.0027    0.0003 H         1 ATP         0.0584
     41 HO2'       -0.6141    0.5574    2.1082 H         1 ATP         0.4149
     42 H1'         1.7826    1.9024    1.6451 H         1 ATP         0.1459
     43 H8          0.6728    2.3873   -1.9272 H         1 ATP         0.2739
     44 HN61       -2.5537    5.7714   -1.2667 H         1 ATP         0.4605
     45 HN62       -3.3283    6.5126    0.1080 H         1 ATP         0.4605
     46 H2         -1.4818    4.3694    3.7565 H         1 ATP         0.0904
     47 H47        -1.0701    4.2005   -2.0743 H         1 ATP         0.5017
@<TRIPOS>BOND
     1    1    2 2
     2    1    3 1
     3    1    4 1
     4    1    8 1
     5    4   32 1
     6    5    6 2
     7    5    7 1
     8    5    8 1
     9    5   12 1
    10    7   33 1
    11    9   10 2
    12    9   11 1
    13    9   12 1
    14    9   13 1
    15   11   34 1
    16   13   14 1
    17   14   15 1
    18   14   35 1
    19   14   36 1
    20   15   16 1
    21   15   17 1
    22   15   37 1
    23   16   21 1
    24   17   18 1
    25   17   19 1
    26   17   38 1
    27   18   39 1
    28   19   20 1
    29   19   21 1
    30   19   40 1
    31   20   41 1
    32   21   22 1
    33   21   42 1
    34   22   23 ar
    35   22   31 ar
    36   23   24 ar
    37   23   43 1
    38   24   25 ar
    39   24   47 1
    40   25   26 ar
    41   25   31 ar
    42   26   27 1
    43   26   28 ar
    44   27   44 1
    45   27   45 1
    46   28   29 ar
    47   29   30 ar
    48   29   46 1
    49   30   31 ar
@<TRIPOS>SUBSTRUCTURE
     1 ATP         1 GROUP 0 A     ****
@<TRIPOS>MOLECULE
[[[5-(6-amino-7,8-dihydropurin-8-ylium-9-yl)-3,4-dihydroxy-tetrahydrofuran-2-yl]methoxy-hydroxy-phosphoryl]oxy-hydroxy-phosphoryl] hydrogen phosphate
   47    49     1     0     0
SMALL
USER_CHARGES

@<TRIPOS>ATOM
      1 PG          5.0586   -0.8072   -7.3781 P.3       1 ATP         1.5449
      2 O1G         3.5860   -0.5276   -7.5814 O.co2     1 ATP        -0.8177
      3 O2G         5.7241   -1.9824   -8.0594 O.co2     1 ATP        -0.8177
      4 O3G         5.8956    0.5467   -7.7413 O.3       1 ATP        -0.7779
      5 PB          4.8982   -1.9306   -4.6412 P.3       1 ATP         1.9141
      6 O1B         5.3315   -3.3487   -4.8690 O.2       1 ATP        -0.8754
      7 O2B         5.4273   -1.2710   -3.2633 O.3       1 ATP        -0.8083
      8 O3B         5.3601   -0.8800   -5.7782 O.3       1 ATP        -0.8025
      9 PA          2.1471   -2.2827   -3.6367 P.3       1 ATP         1.8015
     10 O1A         2.0004   -3.7767   -3.6545 O.2       1 ATP        -0.8201
     11 O2A         0.8165   -1.4786   -4.0847 O.3       1 ATP        -0.8103
     12 O3A         3.3016   -1.6910   -4.5994 O.3       1 ATP        -0.8038
     13 O5'         2.5233   -1.6623   -2.1893 O.3       1 ATP        -0.5730
     14 C5'         2.2816   -0.2918   -1.9206 C.3       1 ATP         0.1929
     15 C4'         2.7248    0.0226   -0.4980 C.3       1 ATP         0.1044
     16 O4'         2.4697    1.4219   -0.2462 O.3       1 ATP        -0.4079
     17 C3'         1.9404   -0.7419    0.5596 C.3       1 ATP         0.1439
     18 O3'         2.7418   -0.8086    1.7389 O.3       1 ATP        -0.5593
     19 C2'         0.7477    0.1630    0.7858 C.3       1 ATP         0.0644
     20 O2'         0.1373   -0.0577    2.0407 O.3       1 ATP        -0.5595
     21 C1'         1.3733    1.5427    0.6747 C.3       1 ATP         0.3792
     22 N9          0.4520    2.5240    0.1767 N.pl3     1 ATP        -0.5557
     23 C8          0.1928    2.8484   -1.0815 C.ar      1 ATP         0.2849
     24 N7         -0.7248    3.8048   -1.2110 N.pl3     1 ATP        -0.5117
     25 C5         -1.0765    4.1129    0.0571 C.ar      1 ATP        -0.2787
     26 C6         -1.9614    5.0063    0.5851 C.ar      1 ATP         0.7736
     27 N6         -2.7145    5.8254   -0.2810 N.pl3     1 ATP        -0.9480
     28 N1         -2.1199    5.1113    1.9228 N.ar      1 ATP        -0.7442
     29 C2         -1.3522    4.2822    2.6839 C.ar      1 ATP         0.7202
     30 N3         -0.4501    3.3660    2.2638 N.ar      1 ATP        -0.6957
     31 C4         -0.3487    3.3198    0.9322 C.ar      1 ATP         0.6231
     32 HOG3        6.8729    0.5278   -7.6591 H         1 ATP         0.4452
     33 HOB2        5.1750   -1.6857   -2.4110 H         1 ATP         0.4969
     34 HOA2        0.4510   -1.6295   -4.9823 H         1 ATP         0.4779
     35 H5'1        2.8428    0.3149   -2.6387 H         1 ATP         0.0280
     36 H5'2        1.2124   -0.0897   -2.0417 H         1 ATP         0.0280
     37 H4'         3.8049   -0.1388   -0.4009 H         1 ATP         0.2049
     38 H3'         1.6783   -1.7629    0.2715 H         1 ATP         0.1077
     39 HO3'        2.2232   -1.2979    2.3953 H         1 ATP         0.4255
     40 H2'        -0.0011    0.0027    0.0003 H         1 ATP         0.0584
     41 HO2'       -0.6141    0.5574    2.1082 H         1 ATP         0.4149
     42 H1'         1.7826    1.9024    1.6451 H         1 ATP         0.1459
     43 H8          0.6728    2.3873   -1.9272 H         1 ATP         0.2739
     44 HN61       -3.3968    6.4465    0.1048 H         1 ATP         0.4605
     45 HN62       -2.6221    5.7051   -1.2696 H         1 ATP         0.4605
     46 H2         -1.4818    4.3694    3.7565 H         1 ATP         0.0904
     47 H47        -1.0701    4.2005   -2.0743 H         1 ATP         0.5017
@<TRIPOS>BOND
     1    1    2 2
     2    1    3 1
     3    1    4 1
     4    1    8 1
     5    4   32 1
     6    5    6 2
     7    5    7 1
     8    5    8 1
     9    5   12 1
    10    7   33 1
    11    9   10 2
    12    9   11 1
    13    9   12 1
    14    9   13 1
    15   11   34 1
    16   13   14 1
    17   14   15 1
    18   14   35 1
    19   14   36 1
    20   15   16 1
    21   15   17 1
    22   15   37 1
    23   16   21 1
    24   17   18 1
    25   17   19 1
    26   17   38 1
    27   18   39 1
    28   19   20 1
    29   19   21 1
    30   19   40 1
    31   20   41 1
    32   21   22 1
    33   21   42 1
    34   22   23 ar
    35   22   31 ar
    36   23   24 ar
    37   23   43 1
    38   24   25 ar
    39   24   47 1
    40   25   26 ar
    41   25   31 ar
    42   26   27 1
    43   26   28 ar
    44   27   44 1
    45   27   45 1
    46   28   29 ar
    47   29   30 ar
    48   29   46 1
    49   30   31 ar
@<TRIPOS>SUBSTRUCTURE
     1 ATP         1 GROUP 0 A     ****
@<TRIPOS>MOLECULE
[[[5-(6-amino-7,8-dihydropurin-8-ylium-9-yl)-3,4-dihydroxy-tetrahydrofuran-2-yl]methoxy-hydroxy-phosphoryl]oxy-hydroxy-phosphoryl] hydrogen phosphate
   47    49     1     0     0
SMALL
USER_CHARGES

@<TRIPOS>ATOM
      1 PG          7.7176   -3.1669   -3.8562 P.3       1 ATP         1.5449
      2 O1G         8.6865   -2.2157   -4.5227 O.co2     1 ATP        -0.8177
      3 O2G         7.6761   -4.6279   -4.2459 O.co2     1 ATP        -0.8177
      4 O3G         7.9247   -3.0655   -2.2399 O.3       1 ATP        -0.7779
      5 PB          5.6129   -1.1034   -3.5552 P.3       1 ATP         1.9141
      6 O1B         5.7387   -0.7509   -2.1023 O.2       1 ATP        -0.8754
      7 O2B         6.3370   -0.0739   -4.5698 O.3       1 ATP        -0.8083
      8 O3B         6.2155   -2.5446   -3.9671 O.3       1 ATP        -0.8025
      9 PA          2.8569   -2.1455   -3.6982 P.3       1 ATP         1.8015
     10 O1A         3.0916   -3.6213   -3.8417 O.2       1 ATP        -0.8201
     11 O2A         1.6263   -1.5787   -4.5826 O.3       1 ATP        -0.8103
     12 O3A         4.1019   -1.2047   -4.1164 O.3       1 ATP        -0.8038
     13 O5'         2.5233   -1.6623   -2.1893 O.3       1 ATP        -0.5730
     14 C5'         2.2816   -0.2918   -1.9206 C.3       1 ATP         0.1929
     15 C4'         2.7248    0.0226   -0.4980 C.3       1 ATP         0.1044
     16 O4'         2.4697    1.4219   -0.2462 O.3       1 ATP        -0.4079
     17 C3'         1.9404   -0.7419    0.5596 C.3       1 ATP         0.1439
     18 O3'         2.7418   -0.8086    1.7389 O.3       1 ATP        -0.5593
     19 C2'         0.7477    0.1630    0.7858 C.3       1 ATP         0.0644
     20 O2'         0.1373   -0.0577    2.0407 O.3       1 ATP        -0.5595
     21 C1'         1.3733    1.5427    0.6747 C.3       1 ATP         0.3792
     22 N9          0.4520    2.5240    0.1767 N.pl3     1 ATP        -0.5557
     23 C8          0.1928    2.8484   -1.0815 C.ar      1 ATP         0.2849
     24 N7         -0.7248    3.8048   -1.2110 N.pl3     1 ATP        -0.5117
     25 C5         -1.0765    4.1129    0.0571 C.ar      1 ATP        -0.2787
     26 C6         -1.9614    5.0063    0.5851 C.ar      1 ATP         0.7736
     27 N6         -2.7145    5.8254   -0.2810 N.pl3     1 ATP        -0.9480
     28 N1         -2.1199    5.1113    1.9228 N.ar      1 ATP        -0.7442
     29 C2         -1.3522    4.2822    2.6839 C.ar      1 ATP         0.7202
     30 N3         -0.4501    3.3660    2.2638 N.ar      1 ATP        -0.6957
     31 C4         -0.3487    3.3198    0.9322 C.ar      1 ATP         0.6231
     32 HOG3        7.3651   -3.6261   -1.6612 H         1 ATP         0.4452
     33 HOB2        7.3045    0.0677   -4.4919 H         1 ATP         0.4969
     34 HOA2        0.7265   -1.9369   -4.4273 H         1 ATP         0.4779
     35 H5'1        2.8428    0.3149   -2.6387 H         1 ATP         0.0280
     36 H5'2        1.2124   -0.0897   -2.0417 H         1 ATP         0.0280
     37 H4'         3.8049   -0.1388   -0.4009 H         1 ATP         0.2049
     38 H3'         1.6783   -1.7629    0.2715 H         1 ATP         0.1077
     39 HO3'        2.2232   -1.2979    2.3953 H         1 ATP         0.4255
     40 H2'        -0.0011    0.0027    0.0003 H         1 ATP         0.0584
     41 HO2'       -0.6141    0.5574    2.1082 H         1 ATP         0.4149
     42 H1'         1.7826    1.9024    1.6451 H         1 ATP         0.1459
     43 H8          0.6728    2.3873   -1.9272 H         1 ATP         0.2739
     44 HN61       -2.5537    5.7714   -1.2667 H         1 ATP         0.4605
     45 HN62       -3.3283    6.5126    0.1080 H         1 ATP         0.4605
     46 H2         -1.4818    4.3694    3.7565 H         1 ATP         0.0904
     47 H47        -1.0701    4.2005   -2.0743 H         1 ATP         0.5017
@<TRIPOS>BOND
     1    1    2 2
     2    1    3 1
     3    1    4 1
     4    1    8 1
     5    4   32 1
     6    5    6 2
     7    5    7 1
     8    5    8 1
     9    5   12 1
    10    7   33 1
    11    9   10 2
    12    9   11 1
    13    9   12 1
    14    9   13 1
    15   11   34 1
    16   13   14 1
    17   14   15 1
    18   14   35 1
    19   14   36 1
    20   15   16 1
    21   15   17 1
    22   15   37 1
    23   16   21 1
    24   17   18 1
    25   17   19 1
    26   17   38 1
    27   18   39 1
    28   19   20 1
    29   19   21 1
    30   19   40 1
    31   20   41 1
    32   21   22 1
    33   21   42 1
    34   22   23 ar
    35   22   31 ar
    36   23   24 ar
    37   23   43 1
    38   24   25 ar
    39   24   47 1
    40   25   26 ar
    41   25   31 ar
    42   26   27 1
    43   26   28 ar
    44   27   44 1
    45   27   45 1
    46   28   29 ar
    47   29   30 ar
    48   29   46 1
    49   30   31 ar
@<TRIPOS>SUBSTRUCTURE
     1 ATP         1 GROUP 0 A     ****
@<TRIPOS>MOLECULE
[[[5-(6-amino-7,8-dihydropurin-8-ylium-9-yl)-3,4-dihydroxy-tetrahydrofuran-2-yl]methoxy-hydroxy-phosphoryl]oxy-hydroxy-phosphoryl] hydrogen phosphate
   47    49     1     0     0
SMALL
USER_CHARGES

@<TRIPOS>ATOM
      1 PG         -1.3520   -0.8580   -5.2807 P.3       1 ATP         1.5449
      2 O1G        -1.0275   -0.2325   -3.9423 O.co2     1 ATP        -0.8177
      3 O2G        -1.8377   -2.2878   -5.3690 O.co2     1 ATP        -0.8177
      4 O3G        -2.4218    0.1033   -6.0535 O.3       1 ATP        -0.7779
      5 PB          1.4227   -1.2867   -6.2270 P.3       1 ATP         1.9141
      6 O1B         1.4964   -2.7841   -6.2835 O.2       1 ATP        -0.8754
      7 O2B         2.1939   -0.5223   -7.4247 O.3       1 ATP        -0.8083
      8 O3B        -0.0700   -0.6704   -6.2692 O.3       1 ATP        -0.8025
      9 PA          3.4957   -0.6445   -4.2289 P.3       1 ATP         1.8015
     10 O1A         4.5940   -0.0911   -5.0900 O.2       1 ATP        -0.8201
     11 O2A         3.6994   -2.1925   -3.8046 O.3       1 ATP        -0.8103
     12 O3A         2.0205   -0.6125   -4.8867 O.3       1 ATP        -0.8038
     13 O5'         3.2874    0.1332   -2.8242 O.3       1 ATP        -0.5730
     14 C5'         2.2816   -0.2918   -1.9206 C.3       1 ATP         0.1929
     15 C4'         2.7248    0.0226   -0.4980 C.3       1 ATP         0.1044
     16 O4'         2.4697    1.4219   -0.2462 O.3       1 ATP        -0.4079
     17 C3'         1.9404   -0.7419    0.5596 C.3       1 ATP         0.1439
     18 O3'         2.7418   -0.8086    1.7389 O.3       1 ATP        -0.5593
     19 C2'         0.7477    0.1630    0.7858 C.3       1 ATP         0.0644
     20 O2'         0.1373   -0.0577    2.0407 O.3       1 ATP        -0.5595
     21 C1'         1.3733    1.5427    0.6747 C.3       1 ATP         0.3792
     22 N9          0.4520    2.5240    0.1767 N.pl3     1 ATP        -0.5557
     23 C8         -0.2172    2.5216   -0.9668 C.ar      1 ATP         0.2849
     24 N7         -1.0011    3.5855   -1.1321 N.pl3     1 ATP        -0.5117
     25 C5         -0.8184    4.3200   -0.0123 C.ar      1 ATP        -0.2787
     26 C6         -1.3349    5.5079    0.4144 C.ar      1 ATP         0.7736
     27 N6         -2.2567    6.1930   -0.4036 N.pl3     1 ATP        -0.9480
     28 N1         -0.9716    6.0291    1.6069 N.ar      1 ATP        -0.7442
     29 C2         -0.0765    5.3009    2.3312 C.ar      1 ATP         0.7202
     30 N3          0.4933    4.1191    2.0023 N.ar      1 ATP        -0.6957
     31 C4          0.0865    3.6675    0.8123 C.ar      1 ATP         0.6231
     32 HOG3       -2.7347   -0.1668   -6.9431 H         1 ATP         0.4452
     33 HOB2        3.1589   -0.6608   -7.5325 H         1 ATP         0.4969
     34 HOA2        4.4967   -2.4422   -3.2908 H         1 ATP         0.4779
     35 H5'1        1.3494    0.2323   -2.1552 H         1 ATP         0.0280
     36 H5'2        2.1260   -1.3686   -2.0436 H         1 ATP         0.0280
     37 H4'         3.8049   -0.1388   -0.4009 H         1 ATP         0.2049
     38 H3'         1.6783   -1.7629    0.2715 H         1 ATP         0.1077
     39 HO3'        2.2232   -1.2979    2.3953 H         1 ATP         0.4255
     40 H2'        -0.0011    0.0027    0.0003 H         1 ATP         0.0584
     41 HO2'       -0.1563   -0.9855    2.0596 H         1 ATP         0.4149
     42 H1'         1.7826    1.9024    1.6451 H         1 ATP         0.1459
     43 H8         -0.1423    1.7373   -1.6999 H         1 ATP         0.2739
     44 HN61       -2.4811    5.8206   -1.3042 H         1 ATP         0.4605
     45 HN62       -2.5986    7.0863   -0.1113 H         1 ATP         0.4605
     46 H2          0.2128    5.7222    3.2871 H         1 ATP         0.0904
     47 H47        -1.5947    3.7835   -1.9255 H         1 ATP         0.5017
@<TRIPOS>BOND
     1    1    2 2
     2    1    3 1
     3    1    4 1
     4    1    8 1
     5    4   32 1
     6    5    6 2
     7    5    7 1
     8    5    8 1
     9    5   12 1
    10    7   33 1
    11    9   10 2
    12    9   11 1
    13    9   12 1
    14    9   13 1
    15   11   34 1
    16   13   14 1
    17   14   15 1
    18   14   35 1
    19   14   36 1
    20   15   16 1
    21   15   17 1
    22   15   37 1
    23   16   21 1
    24   17   18 1
    25   17   19 1
    26   17   38 1
    27   18   39 1
    28   19   20 1
    29   19   21 1
    30   19   40 1
    31   20   41 1
    32   21   22 1
    33   21   42 1
    34   22   23 ar
    35   22   31 ar
    36   23   24 ar
    37   23   43 1
    38   24   25 ar
    39   24   47 1
    40   25   26 ar
    41   25   31 ar
    42   26   27 1
    43   26   28 ar
    44   27   44 1
    45   27   45 1
    46   28   29 ar
    47   29   30 ar
    48   29   46 1
    49   30   31 ar
@<TRIPOS>SUBSTRUCTURE
     1 ATP         1 GROUP 0 A     ****
@<TRIPOS>MOLECULE
[[[5-(6-amino-7,8-dihydropurin-8-ylium-9-yl)-3,4-dihydroxy-tetrahydrofuran-2-yl]methoxy-hydroxy-phosphoryl]oxy-hydroxy-phosphoryl] hydrogen phosphate
   47    49     1     0     0
SMALL
USER_CHARGES

@<TRIPOS>ATOM
      1 PG          3.8077    0.1690   -7.9916 P.3       1 ATP         1.5449
      2 O1G         4.9033    1.2078   -8.0842 O.co2     1 ATP        -0.8177
      3 O2G         2.4006    0.4860   -8.4473 O.co2     1 ATP        -0.8177
      4 O3G         4.3111   -1.1813   -8.7590 O.3       1 ATP        -0.7779
      5 PB          4.8985   -1.0269   -5.5100 P.3       1 ATP         1.9141
      6 O1B         5.5618   -2.2656   -6.0360 O.2       1 ATP        -0.8754
      7 O2B         5.8973    0.2136   -5.2323 O.3       1 ATP        -0.8083
      8 O3B         3.7563   -0.4008   -6.4657 O.3       1 ATP        -0.8025
      9 PA          2.8569   -2.1455   -3.6982 P.3       1 ATP         1.8015
     10 O1A         3.0916   -3.6213   -3.8417 O.2       1 ATP        -0.8201
     11 O2A         1.6263   -1.5787   -4.5826 O.3       1 ATP        -0.8103
     12 O3A         4.1019   -1.2047   -4.1164 O.3       1 ATP        -0.8038
     13 O5'         2.5233   -1.6623   -2.1893 O.3       1 ATP        -0.5730
     14 C5'         2.2816   -0.2918   -1.9206 C.3       1 ATP         0.1929
     15 C4'         2.7248    0.0226   -0.4980 C.3       1 ATP         0.1044
     16 O4'         2.4697    1.4219   -0.2462 O.3       1 ATP        -0.4079
     17 C3'         1.9404   -0.7419    0.5596 C.3       1 ATP         0.1439
     18 O3'         2.7418   -0.8086    1.7389 O.3       1 ATP        -0.5593
     19 C2'         0.7477    0.1630    0.7858 C.3       1 ATP         0.0644
     20 O2'         0.1373   -0.0577    2.0407 O.3       1 ATP        -0.5595
     21 C1'         1.3733    1.5427    0.6747 C.3       1 ATP         0.3792
     22 N9          0.4520    2.5240    0.1767 N.pl3     1 ATP        -0.5557
     23 C8          0.1928    2.8484   -1.0815 C.ar      1 ATP         0.2849
     24 N7         -0.7248    3.8048   -1.2110 N.pl3     1 ATP        -0.5117
     25 C5         -1.0765    4.1129    0.0571 C.ar      1 ATP        -0.2787
     26 C6         -1.9614    5.0063    0.5851 C.ar      1 ATP         0.7736
     27 N6         -2.7145    5.8254   -0.2810 N.pl3     1 ATP        -0.9480
     28 N1         -2.1199    5.1113    1.9228 N.ar      1 ATP        -0.7442
     29 C2         -1.3522    4.2822    2.6839 C.ar      1 ATP         0.7202
     30 N3         -0.4501    3.3660    2.2638 N.ar      1 ATP        -0.6957
     31 C4         -0.3487    3.3198    0.9322 C.ar      1 ATP         0.6231
     32 HOG3        3.7080   -1.9544   -8.7878 H         1 ATP         0.4452
     33 HOB2        6.4184    0.5796   -5.9783 H         1 ATP         0.4969
     34 HOA2        1.6578   -1.6789   -5.5579 H         1 ATP         0.4779
     35 H5'1        2.8428    0.3149   -2.6387 H         1 ATP         0.0280
     36 H5'2        1.2124   -0.0897   -2.0417 H         1 ATP         0.0280
     37 H4'         3.8049   -0.1388   -0.4009 H         1 ATP         0.2049
     38 H3'         1.6783   -1.7629    0.2715 H         1 ATP         0.1077
     39 HO3'        2.2232   -1.2979    2.3953 H         1 ATP         0.4255
     40 H2'        -0.0011    0.0027    0.0003 H         1 ATP         0.0584
     41 HO2'       -0.6141    0.5574    2.1082 H         1 ATP         0.4149
     42 H1'         1.7826    1.9024    1.6451 H         1 ATP         0.1459
     43 H8          0.6728    2.3873   -1.9272 H         1 ATP         0.2739
     44 HN61       -2.5537    5.7714   -1.2667 H         1 ATP         0.4605
     45 HN62       -3.3283    6.5126    0.1080 H         1 ATP         0.4605
     46 H2         -1.4818    4.3694    3.7565 H         1 ATP         0.0904
     47 H47        -1.0701    4.2005   -2.0743 H         1 ATP         0.5017
@<TRIPOS>BOND
     1    1    2 2
     2    1    3 1
     3    1    4 1
     4    1    8 1
     5    4   32 1
     6    5    6 2
     7    5    7 1
     8    5    8 1
     9    5   12 1
    10    7   33 1
    11    9   10 2
    12    9   11 1
    13    9   12 1
    14    9   13 1
    15   11   34 1
    16   13   14 1
    17   14   15 1
    18   14   35 1
    19   14   36 1
    20   15   16 1
    21   15   17 1
    22   15   37 1
    23   16   21 1
    24   17   18 1
    25   17   19 1
    26   17   38 1
    27   18   39 1
    28   19   20 1
    29   19   21 1
    30   19   40 1
    31   20   41 1
    32   21   22 1
    33   21   42 1
    34   22   23 ar
    35   22   31 ar
    36   23   24 ar
    37   23   43 1
    38   24   25 ar
    39   24   47 1
    40   25   26 ar
    41   25   31 ar
    42   26   27 1
    43   26   28 ar
    44   27   44 1
    45   27   45 1
    46   28   29 ar
    47   29   30 ar
    48   29   46 1
    49   30   31 ar
@<TRIPOS>SUBSTRUCTURE
     1 ATP         1 GROUP 0 A     ****
@<TRIPOS>MOLECULE
[[[5-(6-amino-7,8-dihydropurin-8-ylium-9-yl)-3,4-dihydroxy-tetrahydrofuran-2-yl]methoxy-hydroxy-phosphoryl]oxy-hydroxy-phosphoryl] hydrogen phosphate
   47    49     1     0     0
SMALL
USER_CHARGES

@<TRIPOS>ATOM
      1 PG          0.7758    1.2538   -6.4104 P.3       1 ATP         1.5449
      2 O1G        -0.7208    1.2553   -6.1907 O.co2     1 ATP        -0.8177
      3 O2G         1.4151    2.2146   -7.3882 O.co2     1 ATP        -0.8177
      4 O3G         1.5099    1.4210   -4.9617 O.3       1 ATP        -0.7779
      5 PB          1.0160   -1.6727   -6.0150 P.3       1 ATP         1.9141
      6 O1B        -0.4192   -2.0748   -5.8435 O.2       1 ATP        -0.8754
      7 O2B         1.9196   -2.7183   -6.8539 O.3       1 ATP        -0.8083
      8 O3B         1.2491   -0.2636   -6.7700 O.3       1 ATP        -0.8025
      9 PA          2.1863   -2.4516   -3.4216 P.3       1 ATP         1.8015
     10 O1A         2.9721   -3.6759   -3.7924 O.2       1 ATP        -0.8201
     11 O2A         0.7440   -2.7630   -2.7578 O.3       1 ATP        -0.8103
     12 O3A         1.8439   -1.4543   -4.6456 O.3       1 ATP        -0.8038
     13 O5'         2.9195   -1.4814   -2.3527 O.3       1 ATP        -0.5730
     14 C5'         2.2816   -0.2918   -1.9206 C.3       1 ATP         0.1929
     15 C4'         2.7248    0.0226   -0.4980 C.3       1 ATP         0.1044
     16 O4'         2.4697    1.4219   -0.2462 O.3       1 ATP        -0.4079
     17 C3'         1.9404   -0.7419    0.5596 C.3       1 ATP         0.1439
     18 O3'         2.7418   -0.8086    1.7389 O.3       1 ATP        -0.5593
     19 C2'         0.7477    0.1630    0.7858 C.3       1 ATP         0.0644
     20 O2'         0.1373   -0.0577    2.0407 O.3       1 ATP        -0.5595
     21 C1'         1.3733    1.5427    0.6747 C.3       1 ATP         0.3792
     22 N9          0.4520    2.5240    0.1767 N.pl3     1 ATP        -0.5557
     23 C8          0.1928    2.8484   -1.0815 C.ar      1 ATP         0.2849
     24 N7         -0.7248    3.8048   -1.2110 N.pl3     1 ATP        -0.5117
     25 C5         -1.0765    4.1129    0.0571 C.ar      1 ATP        -0.2787
     26 C6         -1.9614    5.0063    0.5851 C.ar      1 ATP         0.7736
     27 N6         -2.7145    5.8254   -0.2810 N.pl3     1 ATP        -0.9480
     28 N1         -2.1199    5.1113    1.9228 N.ar      1 ATP        -0.7442
     29 C2         -1.3522    4.2822    2.6839 C.ar      1 ATP         0.7202
     30 N3         -0.4501    3.3660    2.2638 N.ar      1 ATP        -0.6957
     31 C4         -0.3487    3.3198    0.9322 C.ar      1 ATP         0.6231
     32 HOG3        2.4903    1.4386   -4.9341 H         1 ATP         0.4452
     33 HOB2        2.0181   -3.6352   -6.5197 H         1 ATP         0.4969
     34 HOA2        0.0836   -3.2711   -3.2754 H         1 ATP         0.4779
     35 H5'1        2.5577    0.5243   -2.5962 H         1 ATP         0.0280
     36 H5'2        1.1971   -0.4362   -1.9603 H         1 ATP         0.0280
     37 H4'         3.8049   -0.1388   -0.4009 H         1 ATP         0.2049
     38 H3'         1.6783   -1.7629    0.2715 H         1 ATP         0.1077
     39 HO3'        2.2232   -1.2979    2.3953 H         1 ATP         0.4255
     40 H2'        -0.0011    0.0027    0.0003 H         1 ATP         0.0584
     41 HO2'       -0.1563   -0.9855    2.0596 H         1 ATP         0.4149
     42 H1'         1.7826    1.9024    1.6451 H         1 ATP         0.1459
     43 H8          0.6728    2.3873   -1.9272 H         1 ATP         0.2739
     44 HN61       -2.5537    5.7714   -1.2667 H         1 ATP         0.4605
     45 HN62       -3.3283    6.5126    0.1080 H         1 ATP         0.4605
     46 H2         -1.4818    4.3694    3.7565 H         1 ATP         0.0904
     47 H47        -1.0701    4.2005   -2.0743 H         1 ATP         0.5017
@<TRIPOS>BOND
     1    1    2 2
     2    1    3 1
     3    1    4 1
     4    1    8 1
     5    4   32 1
     6    5    6 2
     7    5    7 1
     8    5    8 1
     9    5   12 1
    10    7   33 1
    11    9   10 2
    12    9   11 1
    13    9   12 1
    14    9   13 1
    15   11   34 1
    16   13   14 1
    17   14   15 1
    18   14   35 1
    19   14   36 1
    20   15   16 1
    21   15   17 1
    22   15   37 1
    23   16   21 1
    24   17   18 1
    25   17   19 1
    26   17   38 1
    27   18   39 1
    28   19   20 1
    29   19   21 1
    30   19   40 1
    31   20   41 1
    32   21   22 1
    33   21   42 1
    34   22   23 ar
    35   22   31 ar
    36   23   24 ar
    37   23   43 1
    38   24   25 ar
    39   24   47 1
    40   25   26 ar
    41   25   31 ar
    42   26   27 1
    43   26   28 ar
    44   27   44 1
    45   27   45 1
    46   28   29 ar
    47   29   30 ar
    48   29   46 1
    49   30   31 ar
@<TRIPOS>SUBSTRUCTURE
     1 ATP         1 GROUP 0 A     ****
@<TRIPOS>MOLECULE
[[[5-(6-amino-7,8-dihydropurin-8-ylium-9-yl)-3,4-dihydroxy-tetrahydrofuran-2-yl]methoxy-hydroxy-phosphoryl]oxy-hydroxy-phosphoryl] hydrogen phosphate
   47    49     1     0     0
SMALL
USER_CHARGES

@<TRIPOS>ATOM
      1 PG          7.1330   -4.6696   -3.5042 P.3       1 ATP         1.5449
      2 O1G         7.2446   -5.0159   -2.0360 O.co2     1 ATP        -0.8177
      3 O2G         8.3422   -4.2003   -4.2824 O.co2     1 ATP        -0.8177
      4 O3G         6.4736   -5.9425   -4.2856 O.3       1 ATP        -0.7779
      5 PB          5.7658   -2.0570   -3.2161 P.3       1 ATP         1.9141
      6 O1B         5.8302   -1.8424   -1.7326 O.2       1 ATP        -0.8754
      7 O2B         6.8877   -1.2630   -4.0672 O.3       1 ATP        -0.8083
      8 O3B         5.9264   -3.5912   -3.6959 O.3       1 ATP        -0.8025
      9 PA          2.8569   -2.1455   -3.6982 P.3       1 ATP         1.8015
     10 O1A         2.6294   -3.6082   -3.9481 O.2       1 ATP        -0.8201
     11 O2A         1.9764   -1.1656   -4.6375 O.3       1 ATP        -0.8103
     12 O3A         4.3739   -1.6354   -3.9184 O.3       1 ATP        -0.8038
     13 O5'         2.5233   -1.6623   -2.1893 O.3       1 ATP        -0.5730
     14 C5'         2.2816   -0.2918   -1.9206 C.3       1 ATP         0.1929
     15 C4'         2.7248    0.0226   -0.4980 C.3       1 ATP         0.1044
     16 O4'         2.4697    1.4219   -0.2462 O.3       1 ATP        -0.4079
     17 C3'         1.9404   -0.7419    0.5596 C.3       1 ATP         0.1439
     18 O3'         2.7418   -0.8086    1.7389 O.3       1 ATP        -0.5593
     19 C2'         0.7477    0.1630    0.7858 C.3       1 ATP         0.0644
     20 O2'         0.1373   -0.0577    2.0407 O.3       1 ATP        -0.5595
     21 C1'         1.3733    1.5427    0.6747 C.3       1 ATP         0.3792
     22 N9          0.4520    2.5240    0.1767 N.pl3     1 ATP        -0.5557
     23 C8          0.1928    2.8484   -1.0815 C.ar      1 ATP         0.2849
     24 N7         -0.7248    3.8048   -1.2110 N.pl3     1 ATP        -0.5117
     25 C5         -1.0765    4.1129    0.0571 C.ar      1 ATP        -0.2787
     26 C6         -1.9614    5.0063    0.5851 C.ar      1 ATP         0.7736
     27 N6         -2.7145    5.8254   -0.2810 N.pl3     1 ATP        -0.9480
     28 N1         -2.1199    5.1113    1.9228 N.ar      1 ATP        -0.7442
     29 C2         -1.3522    4.2822    2.6839 C.ar      1 ATP         0.7202
     30 N3         -0.4501    3.3660    2.2638 N.ar      1 ATP        -0.6957
     31 C4         -0.3487    3.3198    0.9322 C.ar      1 ATP         0.6231
     32 HOG3        6.3339   -5.8746   -5.2542 H         1 ATP         0.4452
     33 HOB2        7.8351   -1.4454   -3.8901 H         1 ATP         0.4969
     34 HOA2        2.0854   -1.2180   -5.6109 H         1 ATP         0.4779
     35 H5'1        2.8428    0.3149   -2.6387 H         1 ATP         0.0280
     36 H5'2        1.2124   -0.0897   -2.0417 H         1 ATP         0.0280
     37 H4'         3.8049   -0.1388   -0.4009 H         1 ATP         0.2049
     38 H3'         1.6783   -1.7629    0.2715 H         1 ATP         0.1077
     39 HO3'        2.2232   -1.2979    2.3953 H         1 ATP         0.4255
     40 H2'        -0.0011    0.0027    0.0003 H         1 ATP         0.0584
     41 HO2'       -0.6141    0.5574    2.1082 H         1 ATP         0.4149
     42 H1'         1.7826    1.9024    1.6451 H         1 ATP         0.1459
     43 H8          0.6728    2.3873   -1.9272 H         1 ATP         0.2739
     44 HN61       -3.3968    6.4465    0.1048 H         1 ATP         0.4605
     45 HN62       -2.6221    5.7051   -1.2696 H         1 ATP         0.4605
     46 H2         -1.4818    4.3694    3.7565 H         1 ATP         0.0904
     47 H47        -1.0701    4.2005   -2.0743 H         1 ATP         0.5017
@<TRIPOS>BOND
     1    1    2 2
     2    1    3 1
     3    1    4 1
     4    1    8 1
     5    4   32 1
     6    5    6 2
     7    5    7 1
     8    5    8 1
     9    5   12 1
    10    7   33 1
    11    9   10 2
    12    9   11 1
    13    9   12 1
    14    9   13 1
    15   11   34 1
    16   13   14 1
    17   14   15 1
    18   14   35 1
    19   14   36 1
    20   15   16 1
    21   15   17 1
    22   15   37 1
    23   16   21 1
    24   17   18 1
    25   17   19 1
    26   17   38 1
    27   18   39 1
    28   19   20 1
    29   19   21 1
    30   19   40 1
    31   20   41 1
    32   21   22 1
    33   21   42 1
    34   22   23 ar
    35   22   31 ar
    36   23   24 ar
    37   23   43 1
    38   24   25 ar
    39   24   47 1
    40   25   26 ar
    41   25   31 ar
    42   26   27 1
    43   26   28 ar
    44   27   44 1
    45   27   45 1
    46   28   29 ar
    47   29   30 ar
    48   29   46 1
    49   30   31 ar
@<TRIPOS>SUBSTRUCTURE
     1 ATP         1 GROUP 0 A     ****
@<TRIPOS>MOLECULE
[[[5-(6-amino-7,8-dihydropurin-8-ylium-9-yl)-3,4-dihydroxy-tetrahydrofuran-2-yl]methoxy-hydroxy-phosphoryl]oxy-hydroxy-phosphoryl] hydrogen phosphate
   47    49     1     0     0
SMALL
USER_CHARGES

@<TRIPOS>ATOM
      1 PG         -0.6782   -1.5345   -7.3144 P.3       1 ATP         1.5449
      2 O1G        -0.8125   -2.9965   -6.9503 O.co2     1 ATP        -0.8177
      3 O2G        -0.2921   -1.1188   -8.7166 O.co2     1 ATP        -0.8177
      4 O3G        -2.0643   -0.7727   -6.9093 O.3       1 ATP        -0.7779
      5 PB          0.7497    0.7223   -6.0312 P.3       1 ATP         1.9141
      6 O1B         1.3970    1.3831   -7.2125 O.2       1 ATP        -0.8754
      7 O2B        -0.6136    1.4256   -5.5212 O.3       1 ATP        -0.8083
      8 O3B         0.3319   -0.8226   -6.2520 O.3       1 ATP        -0.8025
      9 PA          3.0863   -0.0757   -4.4171 P.3       1 ATP         1.8015
     10 O1A         4.2268    0.4190   -5.2587 O.2       1 ATP        -0.8201
     11 O2A         2.7768   -1.6555   -4.5790 O.3       1 ATP        -0.8103
     12 O3A         1.6615    0.6308   -4.7014 O.3       1 ATP        -0.8038
     13 O5'         3.2874    0.1332   -2.8242 O.3       1 ATP        -0.5730
     14 C5'         2.2816   -0.2918   -1.9206 C.3       1 ATP         0.1929
     15 C4'         2.7248    0.0226   -0.4980 C.3       1 ATP         0.1044
     16 O4'         2.4697    1.4219   -0.2462 O.3       1 ATP        -0.4079
     17 C3'         1.9404   -0.7419    0.5596 C.3       1 ATP         0.1439
     18 O3'         2.7418   -0.8086    1.7389 O.3       1 ATP        -0.5593
     19 C2'         0.7477    0.1630    0.7858 C.3       1 ATP         0.0644
     20 O2'         0.1373   -0.0577    2.0407 O.3       1 ATP        -0.5595
     21 C1'         1.3733    1.5427    0.6747 C.3       1 ATP         0.3792
     22 N9          0.4520    2.5240    0.1767 N.pl3     1 ATP        -0.5557
     23 C8          0.1928    2.8484   -1.0815 C.ar      1 ATP         0.2849
     24 N7         -0.7248    3.8048   -1.2110 N.pl3     1 ATP        -0.5117
     25 C5         -1.0765    4.1129    0.0571 C.ar      1 ATP        -0.2787
     26 C6         -1.9614    5.0063    0.5851 C.ar      1 ATP         0.7736
     27 N6         -2.7145    5.8254   -0.2810 N.pl3     1 ATP        -0.9480
     28 N1         -2.1199    5.1113    1.9228 N.ar      1 ATP        -0.7442
     29 C2         -1.3522    4.2822    2.6839 C.ar      1 ATP         0.7202
     30 N3         -0.4501    3.3660    2.2638 N.ar      1 ATP        -0.6957
     31 C4         -0.3487    3.3198    0.9322 C.ar      1 ATP         0.6231
     32 HOG3       -2.1363    0.1899   -7.0835 H         1 ATP         0.4452
     33 HOB2       -1.0865    1.0422   -4.7521 H         1 ATP         0.4969
     34 HOA2        2.5334   -2.0027   -5.4635 H         1 ATP         0.4779
     35 H5'1        1.3494    0.2323   -2.1552 H         1 ATP         0.0280
     36 H5'2        2.1260   -1.3686   -2.0436 H         1 ATP         0.0280
     37 H4'         3.8049   -0.1388   -0.4009 H         1 ATP         0.2049
     38 H3'         1.6783   -1.7629    0.2715 H         1 ATP         0.1077
     39 HO3'        2.2232   -1.2979    2.3953 H         1 ATP         0.4255
     40 H2'        -0.0011    0.0027    0.0003 H         1 ATP         0.0584
     41 HO2'       -0.6141    0.5574    2.1082 H         1 ATP         0.4149
     42 H1'         1.7826    1.9024    1.6451 H         1 ATP         0.1459
     43 H8          0.6728    2.3873   -1.9272 H         1 ATP         0.2739
     44 HN61       -3.3968    6.4465    0.1048 H         1 ATP         0.4605
     45 HN62       -2.6221    5.7051   -1.2696 H         1 ATP         0.4605
     46 H2         -1.4818    4.3694    3.7565 H         1 ATP         0.0904
     47 H47        -1.0701    4.2005   -2.0743 H         1 ATP         0.5017
@<TRIPOS>BOND
     1    1    2 2
     2    1    3 1
     3    1    4 1
     4    1    8 1
     5    4   32 1
     6    5    6 2
     7    5    7 1
     8    5    8 1
     9    5   12 1
    10    7   33 1
    11    9   10 2
    12    9   11 1
    13    9   12 1
    14    9   13 1
    15   11   34 1
    16   13   14 1
    17   14   15 1
    18   14   35 1
    19   14   36 1
    20   15   16 1
    21   15   17 1
    22   15   37 1
    23   16   21 1
    24   17   18 1
    25   17   19 1
    26   17   38 1
    27   18   39 1
    28   19   20 1
    29   19   21 1
    30   19   40 1
    31   20   41 1
    32   21   22 1
    33   21   42 1
    34   22   23 ar
    35   22   31 ar
    36   23   24 ar
    37   23   43 1
    38   24   25 ar
    39   24   47 1
    40   25   26 ar
    41   25   31 ar
    42   26   27 1
    43   26   28 ar
    44   27   44 1
    45   27   45 1
    46   28   29 ar
    47   29   30 ar
    48   29   46 1
    49   30   31 ar
@<TRIPOS>SUBSTRUCTURE
     1 ATP         1 GROUP 0 A     ****
@<TRIPOS>MOLECULE
[[[5-(6-amino-7,8-dihydropurin-8-ylium-9-yl)-3,4-dihydroxy-tetrahydrofuran-2-yl]methoxy-hydroxy-phosphoryl]oxy-hydroxy-phosphoryl] hydrogen phosphate
   47    49     1     0     0
SMALL
USER_CHARGES

@<TRIPOS>ATOM
      1 PG          1.6548    2.2827   -7.7978 P.3       1 ATP         1.5449
      2 O1G         0.3221    1.9720   -8.4422 O.co2     1 ATP        -0.8177
      3 O2G         2.8920    2.4932   -8.6422 O.co2     1 ATP        -0.8177
      4 O3G         1.4659    3.5768   -6.8204 O.3       1 ATP        -0.7779
      5 PB          1.1032    0.6058   -5.4183 P.3       1 ATP         1.9141
      6 O1B         0.7492    1.6415   -4.3922 O.2       1 ATP        -0.8754
      7 O2B        -0.1614   -0.1300   -6.1060 O.3       1 ATP        -0.8083
      8 O3B         1.9673    1.1473   -6.6712 O.3       1 ATP        -0.8025
      9 PA          3.4957   -0.6445   -4.2289 P.3       1 ATP         1.8015
     10 O1A         4.5940   -0.0911   -5.0900 O.2       1 ATP        -0.8201
     11 O2A         3.6994   -2.1925   -3.8046 O.3       1 ATP        -0.8103
     12 O3A         2.0205   -0.6125   -4.8867 O.3       1 ATP        -0.8038
     13 O5'         3.2874    0.1332   -2.8242 O.3       1 ATP        -0.5730
     14 C5'         2.2816   -0.2918   -1.9206 C.3       1 ATP         0.1929
     15 C4'         2.7248    0.0226   -0.4980 C.3       1 ATP         0.1044
     16 O4'         2.4697    1.4219   -0.2462 O.3       1 ATP        -0.4079
     17 C3'         1.9404   -0.7419    0.5596 C.3       1 ATP         0.1439
     18 O3'         2.7418   -0.8086    1.7389 O.3       1 ATP        -0.5593
     19 C2'         0.7477    0.1630    0.7858 C.3       1 ATP         0.0644
     20 O2'         0.1373   -0.0577    2.0407 O.3       1 ATP        -0.5595
     21 C1'         1.3733    1.5427    0.6747 C.3       1 ATP         0.3792
     22 N9          0.4520    2.5240    0.1767 N.pl3     1 ATP        -0.5557
     23 C8          0.1928    2.8484   -1.0815 C.ar      1 ATP         0.2849
     24 N7         -0.7248    3.8048   -1.2110 N.pl3     1 ATP        -0.5117
     25 C5         -1.0765    4.1129    0.0571 C.ar      1 ATP        -0.2787
     26 C6         -1.9614    5.0063    0.5851 C.ar      1 ATP         0.7736
     27 N6         -2.7145    5.8254   -0.2810 N.pl3     1 ATP        -0.9480
     28 N1         -2.1199    5.1113    1.9228 N.ar      1 ATP        -0.7442
     29 C2         -1.3522    4.2822    2.6839 C.ar      1 ATP         0.7202
     30 N3         -0.4501    3.3660    2.2638 N.ar      1 ATP        -0.6957
     31 C4         -0.3487    3.3198    0.9322 C.ar      1 ATP         0.6231
     32 HOG3        2.2461    3.9061   -6.3254 H         1 ATP         0.4452
     33 HOB2       -0.8143    0.4105   -6.5995 H         1 ATP         0.4969
     34 HOA2        3.7592   -2.8731   -4.5084 H         1 ATP         0.4779
     35 H5'1        1.3494    0.2323   -2.1552 H         1 ATP         0.0280
     36 H5'2        2.1260   -1.3686   -2.0436 H         1 ATP         0.0280
     37 H4'         3.8049   -0.1388   -0.4009 H         1 ATP         0.2049
     38 H3'         1.6783   -1.7629    0.2715 H         1 ATP         0.1077
     39 HO3'        3.5554   -1.2733    1.4914 H         1 ATP         0.4255
     40 H2'        -0.0011    0.0027    0.0003 H         1 ATP         0.0584
     41 HO2'       -0.1563   -0.9855    2.0596 H         1 ATP         0.4149
     42 H1'         1.7826    1.9024    1.6451 H         1 ATP         0.1459
     43 H8          0.6728    2.3873   -1.9272 H         1 ATP         0.2739
     44 HN61       -3.3968    6.4465    0.1048 H         1 ATP         0.4605
     45 HN62       -2.6221    5.7051   -1.2696 H         1 ATP         0.4605
     46 H2         -1.4818    4.3694    3.7565 H         1 ATP         0.0904
     47 H47        -1.0701    4.2005   -2.0743 H         1 ATP         0.5017
@<TRIPOS>BOND
     1    1    2 2
     2    1    3 1
     3    1    4 1
     4    1    8 1
     5    4   32 1
     6    5    6 2
     7    5    7 1
     8    5    8 1
     9    5   12 1
    10    7   33 1
    11    9   10 2
    12    9   11 1
    13    9   12 1
    14    9   13 1
    15   11   34 1
    16   13   14 1
    17   14   15 1
    18   14   35 1
    19   14   36 1
    20   15   16 1
    21   15   17 1
    22   15   37 1
    23   16   21 1
    24   17   18 1
    25   17   19 1
    26   17   38 1
    27   18   39 1
    28   19   20 1
    29   19   21 1
    30   19   40 1
    31   20   41 1
    32   21   22 1
    33   21   42 1
    34   22   23 ar
    35   22   31 ar
    36   23   24 ar
    37   23   43 1
    38   24   25 ar
    39   24   47 1
    40   25   26 ar
    41   25   31 ar
    42   26   27 1
    43   26   28 ar
    44   27   44 1
    45   27   45 1
    46   28   29 ar
    47   29   30 ar
    48   29   46 1
    49   30   31 ar
@<TRIPOS>SUBSTRUCTURE
     1 ATP         1 GROUP 0 A     ****
@<TRIPOS>MOLECULE
[[[5-(6-amino-7,8-dihydropurin-8-ylium-9-yl)-3,4-dihydroxy-tetrahydrofuran-2-yl]methoxy-hydroxy-phosphoryl]oxy-hydroxy-phosphoryl] hydrogen phosphate
   47    49     1     0     0
SMALL
USER_CHARGES

@<TRIPOS>ATOM
      1 PG         -5.0349   -8.5299    0.8046 P.3       1 ATP         1.5449
      2 O1G        -4.7444   -8.2531   -0.6538 O.co2     1 ATP        -0.8177
      3 O2G        -6.4399   -8.4049    1.3507 O.co2     1 ATP        -0.8177
      4 O3G        -4.4646  -10.0151    1.1712 O.3       1 ATP        -0.7779
      5 PB         -3.9091   -6.0343    1.9374 P.3       1 ATP         1.9141
      6 O1B        -3.6258   -5.2387    0.6974 O.2       1 ATP        -0.8754
      7 O2B        -5.2808   -5.6426    2.6981 O.3       1 ATP        -0.8083
      8 O3B        -4.0281   -7.6303    1.7173 O.3       1 ATP        -0.8025
      9 PA         -1.2163   -6.3334    3.1041 P.3       1 ATP         1.8015
     10 O1A        -0.9116   -7.7743    2.8129 O.2       1 ATP        -0.8201
     11 O2A        -0.6988   -5.8232    4.5497 O.3       1 ATP        -0.8103
     12 O3A        -2.7840   -5.9434    3.0925 O.3       1 ATP        -0.8038
     13 O5'        -0.5702   -5.2849    2.0530 O.3       1 ATP        -0.5730
     14 C5'        -0.7840   -3.8935    2.2172 C.3       1 ATP         0.1929
     15 C4'        -0.0724   -3.1466    1.1027 C.3       1 ATP         0.1044
     16 O4'        -0.8674   -3.1929   -0.0945 O.3       1 ATP        -0.4079
     17 C3'         0.1338   -1.6715    1.4027 C.3       1 ATP         0.1439
     18 O3'         1.2893   -1.4445    2.1808 O.3       1 ATP        -0.5593
     19 C2'         0.2158   -1.0724    0.0128 C.3       1 ATP         0.0644
     20 O2'         1.5141   -1.2448   -0.5513 O.3       1 ATP        -0.5595
     21 C1'        -0.7897   -1.9176   -0.7583 C.3       1 ATP         0.3792
     22 N9         -2.1040   -1.3333   -0.7704 N.pl3     1 ATP        -0.5557
     23 C8         -3.0822   -1.4850    0.1102 C.ar      1 ATP         0.2849
     24 N7         -4.1844   -0.7999   -0.1888 N.pl3     1 ATP        -0.5117
     25 C5         -3.8875   -0.1651   -1.3445 C.ar      1 ATP        -0.2787
     26 C6         -4.5941    0.6799   -2.1486 C.ar      1 ATP         0.7736
     27 N6         -5.9138    1.0274   -1.7939 N.pl3     1 ATP        -0.9480
     28 N1         -4.0421    1.1824   -3.2748 N.ar      1 ATP        -0.7442
     29 C2         -2.7637    0.7937   -3.5405 C.ar      1 ATP         0.7202
     30 N3         -1.9788   -0.0343   -2.8140 N.ar      1 ATP        -0.6957
     31 C4         -2.5915   -0.4902   -1.7174 C.ar      1 ATP         0.6231
     32 HOG3       -4.5764  -10.3451    2.0881 H         1 ATP         0.4452
     33 HOB2       -6.1315   -5.7303    2.2178 H         1 ATP         0.4969
     34 HOA2        0.2599   -5.8662    4.7522 H         1 ATP         0.4779
     35 H5'1       -1.8600   -3.6936    2.1849 H         1 ATP         0.0280
     36 H5'2       -0.3935   -3.5871    3.1930 H         1 ATP         0.0280
     37 H4'         0.8886   -3.6448    0.8780 H         1 ATP         0.2049
     38 H3'        -0.7373   -1.2358    1.9870 H         1 ATP         0.1077
     39 HO3'        1.3408   -0.4870    2.3219 H         1 ATP         0.4255
     40 H2'        -0.0384   -0.0310    0.0096 H         1 ATP         0.0584
     41 HO2'        2.1463   -0.7958    0.0370 H         1 ATP         0.4149
     42 H1'        -0.4769   -2.1002   -1.8093 H         1 ATP         0.1459
     43 H8         -3.0031   -2.1011    0.9891 H         1 ATP         0.2739
     44 HN61       -6.3271    0.6117   -0.9836 H         1 ATP         0.4605
     45 HN62       -6.4471    1.6092   -2.4083 H         1 ATP         0.4605
     46 H2         -2.3243    1.1986   -4.4449 H         1 ATP         0.0904
     47 H47        -5.0436   -0.7722    0.3425 H         1 ATP         0.5017
@<TRIPOS>BOND
     1    1    2 2
     2    1    3 1
     3    1    4 1
     4    1    8 1
     5    4   32 1
     6    5    6 2
     7    5    7 1
     8    5    8 1
     9    5   12 1
    10    7   33 1
    11    9   10 2
    12    9   11 1
    13    9   12 1
    14    9   13 1
    15   11   34 1
    16   13   14 1
    17   14   15 1
    18   14   35 1
    19   14   36 1
    20   15   16 1
    21   15   17 1
    22   15   37 1
    23   16   21 1
    24   17   18 1
    25   17   19 1
    26   17   38 1
    27   18   39 1
    28   19   20 1
    29   19   21 1
    30   19   40 1
    31   20   41 1
    32   21   22 1
    33   21   42 1
    34   22   23 ar
    35   22   31 ar
    36   23   24 ar
    37   23   43 1
    38   24   25 ar
    39   24   47 1
    40   25   26 ar
    41   25   31 ar
    42   26   27 1
    43   26   28 ar
    44   27   44 1
    45   27   45 1
    46   28   29 ar
    47   29   30 ar
    48   29   46 1
    49   30   31 ar
@<TRIPOS>SUBSTRUCTURE
     1 ATP         1 GROUP 0 A     ****
@<TRIPOS>MOLECULE
[[[5-(6-amino-7,8-dihydropurin-8-ylium-9-yl)-3,4-dihydroxy-tetrahydrofuran-2-yl]methoxy-hydroxy-phosphoryl]oxy-hydroxy-phosphoryl] hydrogen phosphate
   47    49     1     0     0
SMALL
USER_CHARGES

@<TRIPOS>ATOM
      1 PG         -2.2021    0.1705   -4.2861 P.3       1 ATP         1.5449
      2 O1G        -2.4647   -1.0509   -5.1388 O.co2     1 ATP        -0.8177
      3 O2G        -3.3476    0.9679   -3.7032 O.co2     1 ATP        -0.8177
      4 O3G        -1.1940   -0.2538   -3.0740 O.3       1 ATP        -0.7779
      5 PB          0.2167    0.9431   -5.8129 P.3       1 ATP         1.9141
      6 O1B         0.2292   -0.0870   -6.9036 O.2       1 ATP        -0.8754
      7 O2B         0.6713    2.4251   -6.2720 O.3       1 ATP        -0.8083
      8 O3B        -1.2168    1.1772   -5.1056 O.3       1 ATP        -0.8025
      9 PA          2.7564    0.3912   -4.4176 P.3       1 ATP         1.8015
     10 O1A         3.6045    1.2999   -5.2596 O.2       1 ATP        -0.8201
     11 O2A         2.9489   -1.1831   -4.7370 O.3       1 ATP        -0.8103
     12 O3A         1.1624    0.6216   -4.5439 O.3       1 ATP        -0.8038
     13 O5'         3.0190    0.5130   -2.8246 O.3       1 ATP        -0.5730
     14 C5'         2.2816   -0.2918   -1.9206 C.3       1 ATP         0.1929
     15 C4'         2.7248    0.0226   -0.4980 C.3       1 ATP         0.1044
     16 O4'         2.4697    1.4219   -0.2462 O.3       1 ATP        -0.4079
     17 C3'         1.9404   -0.7419    0.5596 C.3       1 ATP         0.1439
     18 O3'         2.7418   -0.8086    1.7389 O.3       1 ATP        -0.5593
     19 C2'         0.7477    0.1630    0.7858 C.3       1 ATP         0.0644
     20 O2'         0.1373   -0.0577    2.0407 O.3       1 ATP        -0.5595
     21 C1'         1.3733    1.5427    0.6747 C.3       1 ATP         0.3792
     22 N9          0.4520    2.5240    0.1767 N.pl3     1 ATP        -0.5557
     23 C8          0.5305    3.2394   -0.9358 C.ar      1 ATP         0.2849
     24 N7         -0.4966    4.0680   -1.1145 N.pl3     1 ATP        -0.5117
     25 C5         -1.2879    3.8664   -0.0375 C.ar      1 ATP        -0.2787
     26 C6         -2.4754    4.4084    0.3577 C.ar      1 ATP         0.7736
     27 N6         -3.0892    5.3882   -0.4495 N.pl3     1 ATP        -0.9480
     28 N1         -3.0632    4.0158    1.5092 N.ar      1 ATP        -0.7442
     29 C2         -2.4008    3.0654    2.2262 C.ar      1 ATP         0.7202
     30 N3         -1.2259    2.4663    1.9260 N.ar      1 ATP        -0.6957
     31 C4         -0.7062    2.9047    0.7757 C.ar      1 ATP         0.6231
     32 HOG3       -0.9250    0.4336   -2.4279 H         1 ATP         0.4452
     33 HOB2        1.5705    2.5522   -6.6426 H         1 ATP         0.4969
     34 HOA2        2.7517   -1.5112   -5.6402 H         1 ATP         0.4779
     35 H5'1        1.2149   -0.0786   -2.0446 H         1 ATP         0.0280
     36 H5'2        2.4641   -1.3459   -2.1539 H         1 ATP         0.0280
     37 H4'         3.8049   -0.1388   -0.4009 H         1 ATP         0.2049
     38 H3'         1.6783   -1.7629    0.2715 H         1 ATP         0.1077
     39 HO3'        3.5554   -1.2733    1.4914 H         1 ATP         0.4255
     40 H2'        -0.0011    0.0027    0.0003 H         1 ATP         0.0584
     41 HO2'       -0.1563   -0.9855    2.0596 H         1 ATP         0.4149
     42 H1'         1.7826    1.9024    1.6451 H         1 ATP         0.1459
     43 H8          1.3437    3.1645   -1.6367 H         1 ATP         0.2739
     44 HN61       -2.6210    5.7042   -1.2748 H         1 ATP         0.4605
     45 HN62       -3.9356    5.8187   -0.1356 H         1 ATP         0.4605
     46 H2         -2.8752    2.7532    3.1495 H         1 ATP         0.0904
     47 H47        -0.6372    4.7004   -1.8900 H         1 ATP         0.5017
@<TRIPOS>BOND
     1    1    2 2
     2    1    3 1
     3    1    4 1
     4    1    8 1
     5    4   32 1
     6    5    6 2
     7    5    7 1
     8    5    8 1
     9    5   12 1
    10    7   33 1
    11    9   10 2
    12    9   11 1
    13    9   12 1
    14    9   13 1
    15   11   34 1
    16   13   14 1
    17   14   15 1
    18   14   35 1
    19   14   36 1
    20   15   16 1
    21   15   17 1
    22   15   37 1
    23   16   21 1
    24   17   18 1
    25   17   19 1
    26   17   38 1
    27   18   39 1
    28   19   20 1
    29   19   21 1
    30   19   40 1
    31   20   41 1
    32   21   22 1
    33   21   42 1
    34   22   23 ar
    35   22   31 ar
    36   23   24 ar
    37   23   43 1
    38   24   25 ar
    39   24   47 1
    40   25   26 ar
    41   25   31 ar
    42   26   27 1
    43   26   28 ar
    44   27   44 1
    45   27   45 1
    46   28   29 ar
    47   29   30 ar
    48   29   46 1
    49   30   31 ar
@<TRIPOS>SUBSTRUCTURE
     1 ATP         1 GROUP 0 A     ****
@<TRIPOS>MOLECULE
[[[5-(6-amino-7,8-dihydropurin-8-ylium-9-yl)-3,4-dihydroxy-tetrahydrofuran-2-yl]methoxy-hydroxy-phosphoryl]oxy-hydroxy-phosphoryl] hydrogen phosphate
   47    49     1     0     0
SMALL
USER_CHARGES

@<TRIPOS>ATOM
      1 PG          3.9121    0.2428   -7.5301 P.3       1 ATP         1.5449
      2 O1G         4.5718   -0.8633   -8.3235 O.co2     1 ATP        -0.8177
      3 O2G         3.9684    1.6769   -8.0078 O.co2     1 ATP        -0.8177
      4 O3G         2.3499   -0.1618   -7.2818 O.3       1 ATP        -0.7779
      5 PB          4.4913   -1.0337   -4.9198 P.3       1 ATP         1.9141
      6 O1B         5.2931   -2.2306   -5.3383 O.2       1 ATP        -0.8754
      7 O2B         4.9898   -0.3245   -3.5553 O.3       1 ATP        -0.8083
      8 O3B         4.4480    0.1734   -5.9927 O.3       1 ATP        -0.8025
      9 PA          2.1471   -2.2827   -3.6367 P.3       1 ATP         1.8015
     10 O1A         2.4550   -3.7444   -3.7865 O.2       1 ATP        -0.8201
     11 O2A         0.5865   -1.9075   -3.8410 O.3       1 ATP        -0.8103
     12 O3A         2.9198   -1.3056   -4.6653 O.3       1 ATP        -0.8038
     13 O5'         2.5233   -1.6623   -2.1893 O.3       1 ATP        -0.5730
     14 C5'         2.2816   -0.2918   -1.9206 C.3       1 ATP         0.1929
     15 C4'         2.7248    0.0226   -0.4980 C.3       1 ATP         0.1044
     16 O4'         2.4697    1.4219   -0.2462 O.3       1 ATP        -0.4079
     17 C3'         1.9404   -0.7419    0.5596 C.3       1 ATP         0.1439
     18 O3'         2.7418   -0.8086    1.7389 O.3       1 ATP        -0.5593
     19 C2'         0.7477    0.1630    0.7858 C.3       1 ATP         0.0644
     20 O2'         0.1373   -0.0577    2.0407 O.3       1 ATP        -0.5595
     21 C1'         1.3733    1.5427    0.6747 C.3       1 ATP         0.3792
     22 N9          0.4520    2.5240    0.1767 N.pl3     1 ATP        -0.5557
     23 C8          0.1928    2.8484   -1.0815 C.ar      1 ATP         0.2849
     24 N7         -0.7248    3.8048   -1.2110 N.pl3     1 ATP        -0.5117
     25 C5         -1.0765    4.1129    0.0571 C.ar      1 ATP        -0.2787
     26 C6         -1.9614    5.0063    0.5851 C.ar      1 ATP         0.7736
     27 N6         -2.7145    5.8254   -0.2810 N.pl3     1 ATP        -0.9480
     28 N1         -2.1199    5.1113    1.9228 N.ar      1 ATP        -0.7442
     29 C2         -1.3522    4.2822    2.6839 C.ar      1 ATP         0.7202
     30 N3         -0.4501    3.3660    2.2638 N.ar      1 ATP        -0.6957
     31 C4         -0.3487    3.3198    0.9322 C.ar      1 ATP         0.6231
     32 HOG3        1.7813    0.4585   -6.7776 H         1 ATP         0.4452
     33 HOB2        4.9989   -0.8465   -2.7250 H         1 ATP         0.4969
     34 HOA2       -0.0800   -2.3109   -3.2451 H         1 ATP         0.4779
     35 H5'1        2.8428    0.3149   -2.6387 H         1 ATP         0.0280
     36 H5'2        1.2124   -0.0897   -2.0417 H         1 ATP         0.0280
     37 H4'         3.8049   -0.1388   -0.4009 H         1 ATP         0.2049
     38 H3'         1.6783   -1.7629    0.2715 H         1 ATP         0.1077
     39 HO3'        2.2232   -1.2979    2.3953 H         1 ATP         0.4255
     40 H2'        -0.0011    0.0027    0.0003 H         1 ATP         0.0584
     41 HO2'       -0.6141    0.5574    2.1082 H         1 ATP         0.4149
     42 H1'         1.7826    1.9024    1.6451 H         1 ATP         0.1459
     43 H8          0.6728    2.3873   -1.9272 H         1 ATP         0.2739
     44 HN61       -2.5537    5.7714   -1.2667 H         1 ATP         0.4605
     45 HN62       -3.3283    6.5126    0.1080 H         1 ATP         0.4605
     46 H2         -1.4818    4.3694    3.7565 H         1 ATP         0.0904
     47 H47        -1.0701    4.2005   -2.0743 H         1 ATP         0.5017
@<TRIPOS>BOND
     1    1    2 2
     2    1    3 1
     3    1    4 1
     4    1    8 1
     5    4   32 1
     6    5    6 2
     7    5    7 1
     8    5    8 1
     9    5   12 1
    10    7   33 1
    11    9   10 2
    12    9   11 1
    13    9   12 1
    14    9   13 1
    15   11   34 1
    16   13   14 1
    17   14   15 1
    18   14   35 1
    19   14   36 1
    20   15   16 1
    21   15   17 1
    22   15   37 1
    23   16   21 1
    24   17   18 1
    25   17   19 1
    26   17   38 1
    27   18   39 1
    28   19   20 1
    29   19   21 1
    30   19   40 1
    31   20   41 1
    32   21   22 1
    33   21   42 1
    34   22   23 ar
    35   22   31 ar
    36   23   24 ar
    37   23   43 1
    38   24   25 ar
    39   24   47 1
    40   25   26 ar
    41   25   31 ar
    42   26   27 1
    43   26   28 ar
    44   27   44 1
    45   27   45 1
    46   28   29 ar
    47   29   30 ar
    48   29   46 1
    49   30   31 ar
@<TRIPOS>SUBSTRUCTURE
     1 ATP         1 GROUP 0 A     ****
@<TRIPOS>MOLECULE
[[[5-(6-amino-7,8-dihydropurin-8-ylium-9-yl)-3,4-dihydroxy-tetrahydrofuran-2-yl]methoxy-hydroxy-phosphoryl]oxy-hydroxy-phosphoryl] hydrogen phosphate
   47    49     1     0     0
SMALL
USER_CHARGES

@<TRIPOS>ATOM
      1 PG         -5.3650   -3.1400    4.0230 P.3       1 ATP         1.5449
      2 O1G        -6.7308   -2.5891    3.6778 O.co2     1 ATP        -0.8177
      3 O2G        -4.1193   -2.5862    3.3677 O.co2     1 ATP        -0.8177
      4 O3G        -5.1752   -3.0702    5.6431 O.3       1 ATP        -0.7779
      5 PB         -4.3043   -5.9021    4.1780 P.3       1 ATP         1.9141
      6 O1B        -3.9179   -5.9984    5.6245 O.2       1 ATP        -0.8754
      7 O2B        -4.9442   -7.2492    3.5541 O.3       1 ATP        -0.8083
      8 O3B        -5.3913   -4.7582    3.8320 O.3       1 ATP        -0.8025
      9 PA         -1.7115   -6.2808    2.8231 P.3       1 ATP         1.8015
     10 O1A        -1.8458   -7.6751    2.2829 O.2       1 ATP        -0.8201
     11 O2A        -0.8701   -6.1798    4.2014 O.3       1 ATP        -0.8103
     12 O3A        -3.1038   -5.5348    3.1621 O.3       1 ATP        -0.8038
     13 O5'        -0.9730   -5.2421    1.8245 O.3       1 ATP        -0.5730
     14 C5'        -0.7840   -3.8935    2.2172 C.3       1 ATP         0.1929
     15 C4'        -0.0724   -3.1466    1.1027 C.3       1 ATP         0.1044
     16 O4'        -0.8674   -3.1929   -0.0945 O.3       1 ATP        -0.4079
     17 C3'         0.1338   -1.6715    1.4027 C.3       1 ATP         0.1439
     18 O3'         1.2893   -1.4445    2.1808 O.3       1 ATP        -0.5593
     19 C2'         0.2158   -1.0724    0.0128 C.3       1 ATP         0.0644
     20 O2'         1.5141   -1.2448   -0.5513 O.3       1 ATP        -0.5595
     21 C1'        -0.7897   -1.9176   -0.7583 C.3       1 ATP         0.3792
     22 N9         -2.1040   -1.3333   -0.7704 N.pl3     1 ATP        -0.5557
     23 C8         -3.0822   -1.4850    0.1102 C.ar      1 ATP         0.2849
     24 N7         -4.1844   -0.7999   -0.1888 N.pl3     1 ATP        -0.5117
     25 C5         -3.8875   -0.1651   -1.3445 C.ar      1 ATP        -0.2787
     26 C6         -4.5941    0.6799   -2.1486 C.ar      1 ATP         0.7736
     27 N6         -5.9138    1.0274   -1.7939 N.pl3     1 ATP        -0.9480
     28 N1         -4.0421    1.1824   -3.2748 N.ar      1 ATP        -0.7442
     29 C2         -2.7637    0.7937   -3.5405 C.ar      1 ATP         0.7202
     30 N3         -1.9788   -0.0343   -2.8140 N.ar      1 ATP        -0.6957
     31 C4         -2.5915   -0.4902   -1.7174 C.ar      1 ATP         0.6231
     32 HOG3       -4.3334   -3.3937    6.0291 H         1 ATP         0.4452
     33 HOB2       -4.4105   -8.0721    3.5535 H         1 ATP         0.4969
     34 HOA2       -1.1920   -6.6660    4.9901 H         1 ATP         0.4779
     35 H5'1       -1.7611   -3.4417    2.4168 H         1 ATP         0.0280
     36 H5'2       -0.1868   -3.8713    3.1345 H         1 ATP         0.0280
     37 H4'         0.8886   -3.6448    0.8780 H         1 ATP         0.2049
     38 H3'        -0.7373   -1.2358    1.9870 H         1 ATP         0.1077
     39 HO3'        1.3408   -0.4870    2.3219 H         1 ATP         0.4255
     40 H2'        -0.0384   -0.0310    0.0096 H         1 ATP         0.0584
     41 HO2'        2.1463   -0.7958    0.0370 H         1 ATP         0.4149
     42 H1'        -0.4769   -2.1002   -1.8093 H         1 ATP         0.1459
     43 H8         -3.0031   -2.1011    0.9891 H         1 ATP         0.2739
     44 HN61       -6.3271    0.6117   -0.9836 H         1 ATP         0.4605
     45 HN62       -6.4471    1.6092   -2.4083 H         1 ATP         0.4605
     46 H2         -2.3243    1.1986   -4.4449 H         1 ATP         0.0904
     47 H47        -5.0436   -0.7722    0.3425 H         1 ATP         0.5017
@<TRIPOS>BOND
     1    1    2 2
     2    1    3 1
     3    1    4 1
     4    1    8 1
     5    4   32 1
     6    5    6 2
     7    5    7 1
     8    5    8 1
     9    5   12 1
    10    7   33 1
    11    9   10 2
    12    9   11 1
    13    9   12 1
    14    9   13 1
    15   11   34 1
    16   13   14 1
    17   14   15 1
    18   14   35 1
    19   14   36 1
    20   15   16 1
    21   15   17 1
    22   15   37 1
    23   16   21 1
    24   17   18 1
    25   17   19 1
    26   17   38 1
    27   18   39 1
    28   19   20 1
    29   19   21 1
    30   19   40 1
    31   20   41 1
    32   21   22 1
    33   21   42 1
    34   22   23 ar
    35   22   31 ar
    36   23   24 ar
    37   23   43 1
    38   24   25 ar
    39   24   47 1
    40   25   26 ar
    41   25   31 ar
    42   26   27 1
    43   26   28 ar
    44   27   44 1
    45   27   45 1
    46   28   29 ar
    47   29   30 ar
    48   29   46 1
    49   30   31 ar
@<TRIPOS>SUBSTRUCTURE
     1 ATP         1 GROUP 0 A     ****
@<TRIPOS>MOLECULE
[[[5-(6-amino-7,8-dihydropurin-8-ylium-9-yl)-3,4-dihydroxy-tetrahydrofuran-2-yl]methoxy-hydroxy-phosphoryl]oxy-hydroxy-phosphoryl] hydrogen phosphate
   47    49     1     0     0
SMALL
USER_CHARGES

@<TRIPOS>ATOM
      1 PG          0.4917    0.4528   -6.0601 P.3       1 ATP         1.5449
      2 O1G         1.0560    0.9364   -4.7426 O.co2     1 ATP        -0.8177
      3 O2G        -0.9703    0.0866   -6.1875 O.co2     1 ATP        -0.8177
      4 O3G         0.8547    1.5523   -7.2112 O.3       1 ATP        -0.7779
      5 PB          2.9242   -1.2245   -6.2783 P.3       1 ATP         1.9141
      6 O1B         3.3940   -2.4620   -6.9847 O.2       1 ATP        -0.8754
      7 O2B         3.7811    0.1083   -6.5990 O.3       1 ATP        -0.8083
      8 O3B         1.3996   -0.7919   -6.5914 O.3       1 ATP        -0.8025
      9 PA          2.1471   -2.2827   -3.6367 P.3       1 ATP         1.8015
     10 O1A         2.4550   -3.7444   -3.7865 O.2       1 ATP        -0.8201
     11 O2A         0.5865   -1.9075   -3.8410 O.3       1 ATP        -0.8103
     12 O3A         2.9198   -1.3056   -4.6653 O.3       1 ATP        -0.8038
     13 O5'         2.5233   -1.6623   -2.1893 O.3       1 ATP        -0.5730
     14 C5'         2.2816   -0.2918   -1.9206 C.3       1 ATP         0.1929
     15 C4'         2.7248    0.0226   -0.4980 C.3       1 ATP         0.1044
     16 O4'         2.4697    1.4219   -0.2462 O.3       1 ATP        -0.4079
     17 C3'         1.9404   -0.7419    0.5596 C.3       1 ATP         0.1439
     18 O3'         2.7418   -0.8086    1.7389 O.3       1 ATP        -0.5593
     19 C2'         0.7477    0.1630    0.7858 C.3       1 ATP         0.0644
     20 O2'         0.1373   -0.0577    2.0407 O.3       1 ATP        -0.5595
     21 C1'         1.3733    1.5427    0.6747 C.3       1 ATP         0.3792
     22 N9          0.4520    2.5240    0.1767 N.pl3     1 ATP        -0.5557
     23 C8          0.1928    2.8484   -1.0815 C.ar      1 ATP         0.2849
     24 N7         -0.7248    3.8048   -1.2110 N.pl3     1 ATP        -0.5117
     25 C5         -1.0765    4.1129    0.0571 C.ar      1 ATP        -0.2787
     26 C6         -1.9614    5.0063    0.5851 C.ar      1 ATP         0.7736
     27 N6         -2.7145    5.8254   -0.2810 N.pl3     1 ATP        -0.9480
     28 N1         -2.1199    5.1113    1.9228 N.ar      1 ATP        -0.7442
     29 C2         -1.3522    4.2822    2.6839 C.ar      1 ATP         0.7202
     30 N3         -0.4501    3.3660    2.2638 N.ar      1 ATP        -0.6957
     31 C4         -0.3487    3.3198    0.9322 C.ar      1 ATP         0.6231
     32 HOG3        0.5555    1.3827   -8.1299 H         1 ATP         0.4452
     33 HOB2        3.8342    0.4270   -7.5251 H         1 ATP         0.4969
     34 HOA2        0.1583   -2.1116   -4.6996 H         1 ATP         0.4779
     35 H5'1        2.8428    0.3149   -2.6387 H         1 ATP         0.0280
     36 H5'2        1.2124   -0.0897   -2.0417 H         1 ATP         0.0280
     37 H4'         3.8049   -0.1388   -0.4009 H         1 ATP         0.2049
     38 H3'         1.6783   -1.7629    0.2715 H         1 ATP         0.1077
     39 HO3'        2.2232   -1.2979    2.3953 H         1 ATP         0.4255
     40 H2'        -0.0011    0.0027    0.0003 H         1 ATP         0.0584
     41 HO2'       -0.6141    0.5574    2.1082 H         1 ATP         0.4149
     42 H1'         1.7826    1.9024    1.6451 H         1 ATP         0.1459
     43 H8          0.6728    2.3873   -1.9272 H         1 ATP         0.2739
     44 HN61       -2.5537    5.7714   -1.2667 H         1 ATP         0.4605
     45 HN62       -3.3283    6.5126    0.1080 H         1 ATP         0.4605
     46 H2         -1.4818    4.3694    3.7565 H         1 ATP         0.0904
     47 H47        -1.0701    4.2005   -2.0743 H         1 ATP         0.5017
@<TRIPOS>BOND
     1    1    2 2
     2    1    3 1
     3    1    4 1
     4    1    8 1
     5    4   32 1
     6    5    6 2
     7    5    7 1
     8    5    8 1
     9    5   12 1
    10    7   33 1
    11    9   10 2
    12    9   11 1
    13    9   12 1
    14    9   13 1
    15   11   34 1
    16   13   14 1
    17   14   15 1
    18   14   35 1
    19   14   36 1
    20   15   16 1
    21   15   17 1
    22   15   37 1
    23   16   21 1
    24   17   18 1
    25   17   19 1
    26   17   38 1
    27   18   39 1
    28   19   20 1
    29   19   21 1
    30   19   40 1
    31   20   41 1
    32   21   22 1
    33   21   42 1
    34   22   23 ar
    35   22   31 ar
    36   23   24 ar
    37   23   43 1
    38   24   25 ar
    39   24   47 1
    40   25   26 ar
    41   25   31 ar
    42   26   27 1
    43   26   28 ar
    44   27   44 1
    45   27   45 1
    46   28   29 ar
    47   29   30 ar
    48   29   46 1
    49   30   31 ar
@<TRIPOS>SUBSTRUCTURE
     1 ATP         1 GROUP 0 A     ****
@<TRIPOS>MOLECULE
[[[5-(6-amino-7,8-dihydropurin-8-ylium-9-yl)-3,4-dihydroxy-tetrahydrofuran-2-yl]methoxy-hydroxy-phosphoryl]oxy-hydroxy-phosphoryl] hydrogen phosphate
   47    49     1     0     0
SMALL
USER_CHARGES

@<TRIPOS>ATOM
      1 PG          3.6935    4.0003   -6.3109 P.3       1 ATP         1.5449
      2 O1G         3.0419    2.7478   -6.8536 O.co2     1 ATP        -0.8177
      3 O2G         4.9797    4.5248   -6.9097 O.co2     1 ATP        -0.8177
      4 O3G         2.5881    5.2018   -6.3191 O.3       1 ATP        -0.7779
      5 PB          2.8456    3.4554   -3.5248 P.3       1 ATP         1.9141
      6 O1B         3.4335    3.4034   -2.1455 O.2       1 ATP        -0.8754
      7 O2B         1.6432    4.5198   -3.7117 O.3       1 ATP        -0.8083
      8 O3B         3.8862    3.8330   -4.7013 O.3       1 ATP        -0.8025
      9 PA          2.8849    0.6141   -4.3169 P.3       1 ATP         1.8015
     10 O1A         4.0138    0.5846   -5.3061 O.2       1 ATP        -0.8201
     11 O2A         1.6272   -0.3226   -4.7151 O.3       1 ATP        -0.8103
     12 O3A         2.2239    2.0669   -4.0670 O.3       1 ATP        -0.8038
     13 O5'         3.2874    0.1332   -2.8242 O.3       1 ATP        -0.5730
     14 C5'         2.2816   -0.2918   -1.9206 C.3       1 ATP         0.1929
     15 C4'         2.7248    0.0226   -0.4980 C.3       1 ATP         0.1044
     16 O4'         2.4697    1.4219   -0.2462 O.3       1 ATP        -0.4079
     17 C3'         1.9404   -0.7419    0.5596 C.3       1 ATP         0.1439
     18 O3'         2.7418   -0.8086    1.7389 O.3       1 ATP        -0.5593
     19 C2'         0.7477    0.1630    0.7858 C.3       1 ATP         0.0644
     20 O2'         0.1373   -0.0577    2.0407 O.3       1 ATP        -0.5595
     21 C1'         1.3733    1.5427    0.6747 C.3       1 ATP         0.3792
     22 N9          0.4520    2.5240    0.1767 N.pl3     1 ATP        -0.5557
     23 C8          0.1928    2.8484   -1.0815 C.ar      1 ATP         0.2849
     24 N7         -0.7248    3.8048   -1.2110 N.pl3     1 ATP        -0.5117
     25 C5         -1.0765    4.1129    0.0571 C.ar      1 ATP        -0.2787
     26 C6         -1.9614    5.0063    0.5851 C.ar      1 ATP         0.7736
     27 N6         -2.7145    5.8254   -0.2810 N.pl3     1 ATP        -0.9480
     28 N1         -2.1199    5.1113    1.9228 N.ar      1 ATP        -0.7442
     29 C2         -1.3522    4.2822    2.6839 C.ar      1 ATP         0.7202
     30 N3         -0.4501    3.3660    2.2638 N.ar      1 ATP        -0.6957
     31 C4         -0.3487    3.3198    0.9322 C.ar      1 ATP         0.6231
     32 HOG3        2.8580    6.0870   -5.9938 H         1 ATP         0.4452
     33 HOB2        1.8203    5.4700   -3.5450 H         1 ATP         0.4969
     34 HOA2        1.1551   -0.1496   -5.5573 H         1 ATP         0.4779
     35 H5'1        1.3494    0.2323   -2.1552 H         1 ATP         0.0280
     36 H5'2        2.1260   -1.3686   -2.0436 H         1 ATP         0.0280
     37 H4'         3.8049   -0.1388   -0.4009 H         1 ATP         0.2049
     38 H3'         1.6783   -1.7629    0.2715 H         1 ATP         0.1077
     39 HO3'        2.2232   -1.2979    2.3953 H         1 ATP         0.4255
     40 H2'        -0.0011    0.0027    0.0003 H         1 ATP         0.0584
     41 HO2'       -0.6141    0.5574    2.1082 H         1 ATP         0.4149
     42 H1'         1.7826    1.9024    1.6451 H         1 ATP         0.1459
     43 H8          0.6728    2.3873   -1.9272 H         1 ATP         0.2739
     44 HN61       -3.3968    6.4465    0.1048 H         1 ATP         0.4605
     45 HN62       -2.6221    5.7051   -1.2696 H         1 ATP         0.4605
     46 H2         -1.4818    4.3694    3.7565 H         1 ATP         0.0904
     47 H47        -1.0701    4.2005   -2.0743 H         1 ATP         0.5017
@<TRIPOS>BOND
     1    1    2 2
     2    1    3 1
     3    1    4 1
     4    1    8 1
     5    4   32 1
     6    5    6 2
     7    5    7 1
     8    5    8 1
     9    5   12 1
    10    7   33 1
    11    9   10 2
    12    9   11 1
    13    9   12 1
    14    9   13 1
    15   11   34 1
    16   13   14 1
    17   14   15 1
    18   14   35 1
    19   14   36 1
    20   15   16 1
    21   15   17 1
    22   15   37 1
    23   16   21 1
    24   17   18 1
    25   17   19 1
    26   17   38 1
    27   18   39 1
    28   19   20 1
    29   19   21 1
    30   19   40 1
    31   20   41 1
    32   21   22 1
    33   21   42 1
    34   22   23 ar
    35   22   31 ar
    36   23   24 ar
    37   23   43 1
    38   24   25 ar
    39   24   47 1
    40   25   26 ar
    41   25   31 ar
    42   26   27 1
    43   26   28 ar
    44   27   44 1
    45   27   45 1
    46   28   29 ar
    47   29   30 ar
    48   29   46 1
    49   30   31 ar
@<TRIPOS>SUBSTRUCTURE
     1 ATP         1 GROUP 0 A     ****
@<TRIPOS>MOLECULE
[[[5-(6-amino-7,8-dihydropurin-8-ylium-9-yl)-3,4-dihydroxy-tetrahydrofuran-2-yl]methoxy-hydroxy-phosphoryl]oxy-hydroxy-phosphoryl] hydrogen phosphate
   47    49     1     0     0
SMALL
USER_CHARGES

@<TRIPOS>ATOM
      1 PG          4.4617   -3.3845   -6.7229 P.3       1 ATP         1.5449
      2 O1G         2.9732   -3.6033   -6.5668 O.co2     1 ATP        -0.8177
      3 O2G         5.4016   -4.5564   -6.8990 O.co2     1 ATP        -0.8177
      4 O3G         4.7028   -2.3354   -7.9505 O.3       1 ATP        -0.7779
      5 PB          4.4913   -1.0337   -4.9198 P.3       1 ATP         1.9141
      6 O1B         5.2556   -0.5156   -3.7373 O.2       1 ATP        -0.8754
      7 O2B         4.5147   -0.0719   -6.2191 O.3       1 ATP        -0.8083
      8 O3B         4.9866   -2.4637   -5.4850 O.3       1 ATP        -0.8025
      9 PA          2.1471   -2.2827   -3.6367 P.3       1 ATP         1.8015
     10 O1A         2.4550   -3.7444   -3.7865 O.2       1 ATP        -0.8201
     11 O2A         0.5865   -1.9075   -3.8410 O.3       1 ATP        -0.8103
     12 O3A         2.9198   -1.3056   -4.6653 O.3       1 ATP        -0.8038
     13 O5'         2.5233   -1.6623   -2.1893 O.3       1 ATP        -0.5730
     14 C5'         2.2816   -0.2918   -1.9206 C.3       1 ATP         0.1929
     15 C4'         2.7248    0.0226   -0.4980 C.3       1 ATP         0.1044
     16 O4'         2.4697    1.4219   -0.2462 O.3       1 ATP        -0.4079
     17 C3'         1.9404   -0.7419    0.5596 C.3       1 ATP         0.1439
     18 O3'         2.7418   -0.8086    1.7389 O.3       1 ATP        -0.5593
     19 C2'         0.7477    0.1630    0.7858 C.3       1 ATP         0.0644
     20 O2'         0.1373   -0.0577    2.0407 O.3       1 ATP        -0.5595
     21 C1'         1.3733    1.5427    0.6747 C.3       1 ATP         0.3792
     22 N9          0.4520    2.5240    0.1767 N.pl3     1 ATP        -0.5557
     23 C8          0.1928    2.8484   -1.0815 C.ar      1 ATP         0.2849
     24 N7         -0.7248    3.8048   -1.2110 N.pl3     1 ATP        -0.5117
     25 C5         -1.0765    4.1129    0.0571 C.ar      1 ATP        -0.2787
     26 C6         -1.9614    5.0063    0.5851 C.ar      1 ATP         0.7736
     27 N6         -2.7145    5.8254   -0.2810 N.pl3     1 ATP        -0.9480
     28 N1         -2.1199    5.1113    1.9228 N.ar      1 ATP        -0.7442
     29 C2         -1.3522    4.2822    2.6839 C.ar      1 ATP         0.7202
     30 N3         -0.4501    3.3660    2.2638 N.ar      1 ATP        -0.6957
     31 C4         -0.3487    3.3198    0.9322 C.ar      1 ATP         0.6231
     32 HOG3        5.6241   -2.0883   -8.1796 H         1 ATP         0.4452
     33 HOB2        5.3771    0.1473   -6.6318 H         1 ATP         0.4969
     34 HOA2       -0.0800   -2.3109   -3.2451 H         1 ATP         0.4779
     35 H5'1        2.8428    0.3149   -2.6387 H         1 ATP         0.0280
     36 H5'2        1.2124   -0.0897   -2.0417 H         1 ATP         0.0280
     37 H4'         3.8049   -0.1388   -0.4009 H         1 ATP         0.2049
     38 H3'         1.6783   -1.7629    0.2715 H         1 ATP         0.1077
     39 HO3'        2.2232   -1.2979    2.3953 H         1 ATP         0.4255
     40 H2'        -0.0011    0.0027    0.0003 H         1 ATP         0.0584
     41 HO2'       -0.6141    0.5574    2.1082 H         1 ATP         0.4149
     42 H1'         1.7826    1.9024    1.6451 H         1 ATP         0.1459
     43 H8          0.6728    2.3873   -1.9272 H         1 ATP         0.2739
     44 HN61       -2.5537    5.7714   -1.2667 H         1 ATP         0.4605
     45 HN62       -3.3283    6.5126    0.1080 H         1 ATP         0.4605
     46 H2         -1.4818    4.3694    3.7565 H         1 ATP         0.0904
     47 H47        -1.0701    4.2005   -2.0743 H         1 ATP         0.5017
@<TRIPOS>BOND
     1    1    2 2
     2    1    3 1
     3    1    4 1
     4    1    8 1
     5    4   32 1
     6    5    6 2
     7    5    7 1
     8    5    8 1
     9    5   12 1
    10    7   33 1
    11    9   10 2
    12    9   11 1
    13    9   12 1
    14    9   13 1
    15   11   34 1
    16   13   14 1
    17   14   15 1
    18   14   35 1
    19   14   36 1
    20   15   16 1
    21   15   17 1
    22   15   37 1
    23   16   21 1
    24   17   18 1
    25   17   19 1
    26   17   38 1
    27   18   39 1
    28   19   20 1
    29   19   21 1
    30   19   40 1
    31   20   41 1
    32   21   22 1
    33   21   42 1
    34   22   23 ar
    35   22   31 ar
    36   23   24 ar
    37   23   43 1
    38   24   25 ar
    39   24   47 1
    40   25   26 ar
    41   25   31 ar
    42   26   27 1
    43   26   28 ar
    44   27   44 1
    45   27   45 1
    46   28   29 ar
    47   29   30 ar
    48   29   46 1
    49   30   31 ar
@<TRIPOS>SUBSTRUCTURE
     1 ATP         1 GROUP 0 A     ****
@<TRIPOS>MOLECULE
[[[5-(6-amino-7,8-dihydropurin-8-ylium-9-yl)-3,4-dihydroxy-tetrahydrofuran-2-yl]methoxy-hydroxy-phosphoryl]oxy-hydroxy-phosphoryl] hydrogen phosphate
   47    49     1     0     0
SMALL
USER_CHARGES

@<TRIPOS>ATOM
      1 PG         -2.1801    0.6528   -6.2333 P.3       1 ATP         1.5449
      2 O1G        -2.0104    1.3800   -7.5488 O.co2     1 ATP        -0.8177
      3 O2G        -3.4144    0.8656   -5.3853 O.co2     1 ATP        -0.8177
      4 O3G        -2.0036   -0.9479   -6.5023 O.3       1 ATP        -0.7779
      5 PB         -0.2715    2.2477   -4.6233 P.3       1 ATP         1.9141
      6 O1B         0.0631    3.3646   -5.5675 O.2       1 ATP        -0.8754
      7 O2B        -1.3729    2.6152   -3.4984 O.3       1 ATP        -0.8083
      8 O3B        -0.8561    0.9121   -5.3190 O.3       1 ATP        -0.8025
      9 PA          2.3569    0.9674   -4.2305 P.3       1 ATP         1.8015
     10 O1A         3.2462    1.8166   -5.0918 O.2       1 ATP        -0.8201
     11 O2A         1.8897   -0.4193   -4.9210 O.3       1 ATP        -0.8103
     12 O3A         0.9709    1.6610   -3.7745 O.3       1 ATP        -0.8038
     13 O5'         3.0190    0.5130   -2.8246 O.3       1 ATP        -0.5730
     14 C5'         2.2816   -0.2918   -1.9206 C.3       1 ATP         0.1929
     15 C4'         2.7248    0.0226   -0.4980 C.3       1 ATP         0.1044
     16 O4'         2.4697    1.4219   -0.2462 O.3       1 ATP        -0.4079
     17 C3'         1.9404   -0.7419    0.5596 C.3       1 ATP         0.1439
     18 O3'         2.7418   -0.8086    1.7389 O.3       1 ATP        -0.5593
     19 C2'         0.7477    0.1630    0.7858 C.3       1 ATP         0.0644
     20 O2'         0.1373   -0.0577    2.0407 O.3       1 ATP        -0.5595
     21 C1'         1.3733    1.5427    0.6747 C.3       1 ATP         0.3792
     22 N9          0.4520    2.5240    0.1767 N.pl3     1 ATP        -0.5557
     23 C8          0.5305    3.2394   -0.9358 C.ar      1 ATP         0.2849
     24 N7         -0.4966    4.0680   -1.1145 N.pl3     1 ATP        -0.5117
     25 C5         -1.2879    3.8664   -0.0375 C.ar      1 ATP        -0.2787
     26 C6         -2.4754    4.4084    0.3577 C.ar      1 ATP         0.7736
     27 N6         -3.0892    5.3882   -0.4495 N.pl3     1 ATP        -0.9480
     28 N1         -3.0632    4.0158    1.5092 N.ar      1 ATP        -0.7442
     29 C2         -2.4008    3.0654    2.2262 C.ar      1 ATP         0.7202
     30 N3         -1.2259    2.4663    1.9260 N.ar      1 ATP        -0.6957
     31 C4         -0.7062    2.9047    0.7757 C.ar      1 ATP         0.6231
     32 HOG3       -2.0861   -1.5613   -5.7413 H         1 ATP         0.4452
     33 HOB2       -1.6361    1.9283   -2.8496 H         1 ATP         0.4969
     34 HOA2        2.5738   -1.0664   -5.1952 H         1 ATP         0.4779
     35 H5'1        1.2149   -0.0786   -2.0446 H         1 ATP         0.0280
     36 H5'2        2.4641   -1.3459   -2.1539 H         1 ATP         0.0280
     37 H4'         3.8049   -0.1388   -0.4009 H         1 ATP         0.2049
     38 H3'         1.6783   -1.7629    0.2715 H         1 ATP         0.1077
     39 HO3'        2.2232   -1.2979    2.3953 H         1 ATP         0.4255
     40 H2'        -0.0011    0.0027    0.0003 H         1 ATP         0.0584
     41 HO2'       -0.1563   -0.9855    2.0596 H         1 ATP         0.4149
     42 H1'         1.7826    1.9024    1.6451 H         1 ATP         0.1459
     43 H8          1.3437    3.1645   -1.6367 H         1 ATP         0.2739
     44 HN61       -2.6210    5.7042   -1.2748 H         1 ATP         0.4605
     45 HN62       -3.9356    5.8187   -0.1356 H         1 ATP         0.4605
     46 H2         -2.8752    2.7532    3.1495 H         1 ATP         0.0904
     47 H47        -0.6372    4.7004   -1.8900 H         1 ATP         0.5017
@<TRIPOS>BOND
     1    1    2 2
     2    1    3 1
     3    1    4 1
     4    1    8 1
     5    4   32 1
     6    5    6 2
     7    5    7 1
     8    5    8 1
     9    5   12 1
    10    7   33 1
    11    9   10 2
    12    9   11 1
    13    9   12 1
    14    9   13 1
    15   11   34 1
    16   13   14 1
    17   14   15 1
    18   14   35 1
    19   14   36 1
    20   15   16 1
    21   15   17 1
    22   15   37 1
    23   16   21 1
    24   17   18 1
    25   17   19 1
    26   17   38 1
    27   18   39 1
    28   19   20 1
    29   19   21 1
    30   19   40 1
    31   20   41 1
    32   21   22 1
    33   21   42 1
    34   22   23 ar
    35   22   31 ar
    36   23   24 ar
    37   23   43 1
    38   24   25 ar
    39   24   47 1
    40   25   26 ar
    41   25   31 ar
    42   26   27 1
    43   26   28 ar
    44   27   44 1
    45   27   45 1
    46   28   29 ar
    47   29   30 ar
    48   29   46 1
    49   30   31 ar
@<TRIPOS>SUBSTRUCTURE
     1 ATP         1 GROUP 0 A     ****
@<TRIPOS>MOLECULE
[[[5-(6-amino-7,8-dihydropurin-8-ylium-9-yl)-3,4-dihydroxy-tetrahydrofuran-2-yl]methoxy-hydroxy-phosphoryl]oxy-hydroxy-phosphoryl] hydrogen phosphate
   47    49     1     0     0
SMALL
USER_CHARGES

@<TRIPOS>ATOM
      1 PG          1.9013   -3.9529   -7.0049 P.3       1 ATP         1.5449
      2 O1G         2.5801   -3.7078   -8.3342 O.co2     1 ATP        -0.8177
      3 O2G         0.4732   -4.4478   -6.9452 O.co2     1 ATP        -0.8177
      4 O3G         2.8380   -4.9603   -6.1255 O.3       1 ATP        -0.7779
      5 PB          1.4097   -1.1283   -6.2579 P.3       1 ATP         1.9141
      6 O1B         1.7913   -0.4099   -7.5186 O.2       1 ATP        -0.8754
      7 O2B        -0.1787   -1.3532   -6.0578 O.3       1 ATP        -0.8083
      8 O3B         2.0362   -2.6083   -6.0941 O.3       1 ATP        -0.8025
      9 PA          3.3392   -0.0290   -4.3163 P.3       1 ATP         1.8015
     10 O1A         4.1272    0.9231   -5.1687 O.2       1 ATP        -0.8201
     11 O2A         4.0576   -1.4591   -4.0783 O.3       1 ATP        -0.8103
     12 O3A         1.8781   -0.4177   -4.8854 O.3       1 ATP        -0.8038
     13 O5'         3.0190    0.5130   -2.8246 O.3       1 ATP        -0.5730
     14 C5'         2.2816   -0.2918   -1.9206 C.3       1 ATP         0.1929
     15 C4'         2.7248    0.0226   -0.4980 C.3       1 ATP         0.1044
     16 O4'         2.4697    1.4219   -0.2462 O.3       1 ATP        -0.4079
     17 C3'         1.9404   -0.7419    0.5596 C.3       1 ATP         0.1439
     18 O3'         2.7418   -0.8086    1.7389 O.3       1 ATP        -0.5593
     19 C2'         0.7477    0.1630    0.7858 C.3       1 ATP         0.0644
     20 O2'         0.1373   -0.0577    2.0407 O.3       1 ATP        -0.5595
     21 C1'         1.3733    1.5427    0.6747 C.3       1 ATP         0.3792
     22 N9          0.4520    2.5240    0.1767 N.pl3     1 ATP        -0.5557
     23 C8         -0.2172    2.5216   -0.9668 C.ar      1 ATP         0.2849
     24 N7         -1.0011    3.5855   -1.1321 N.pl3     1 ATP        -0.5117
     25 C5         -0.8184    4.3200   -0.0123 C.ar      1 ATP        -0.2787
     26 C6         -1.3349    5.5079    0.4144 C.ar      1 ATP         0.7736
     27 N6         -2.2567    6.1930   -0.4036 N.pl3     1 ATP        -0.9480
     28 N1         -0.9716    6.0291    1.6069 N.ar      1 ATP        -0.7442
     29 C2         -0.0765    5.3009    2.3312 C.ar      1 ATP         0.7202
     30 N3          0.4933    4.1191    2.0023 N.ar      1 ATP        -0.6957
     31 C4          0.0865    3.6675    0.8123 C.ar      1 ATP         0.6231
     32 HOG3        2.5332   -5.2186   -5.2296 H         1 ATP         0.4452
     33 HOB2       -0.6730   -1.8710   -6.7283 H         1 ATP         0.4969
     34 HOA2        4.9345   -1.4819   -3.6394 H         1 ATP         0.4779
     35 H5'1        1.2149   -0.0786   -2.0446 H         1 ATP         0.0280
     36 H5'2        2.4641   -1.3459   -2.1539 H         1 ATP         0.0280
     37 H4'         3.8049   -0.1388   -0.4009 H         1 ATP         0.2049
     38 H3'         1.6783   -1.7629    0.2715 H         1 ATP         0.1077
     39 HO3'        3.5554   -1.2733    1.4914 H         1 ATP         0.4255
     40 H2'        -0.0011    0.0027    0.0003 H         1 ATP         0.0584
     41 HO2'       -0.1563   -0.9855    2.0596 H         1 ATP         0.4149
     42 H1'         1.7826    1.9024    1.6451 H         1 ATP         0.1459
     43 H8         -0.1423    1.7373   -1.6999 H         1 ATP         0.2739
     44 HN61       -2.4811    5.8206   -1.3042 H         1 ATP         0.4605
     45 HN62       -2.5986    7.0863   -0.1113 H         1 ATP         0.4605
     46 H2          0.2128    5.7222    3.2871 H         1 ATP         0.0904
     47 H47        -1.5947    3.7835   -1.9255 H         1 ATP         0.5017
@<TRIPOS>BOND
     1    1    2 2
     2    1    3 1
     3    1    4 1
     4    1    8 1
     5    4   32 1
     6    5    6 2
     7    5    7 1
     8    5    8 1
     9    5   12 1
    10    7   33 1
    11    9   10 2
    12    9   11 1
    13    9   12 1
    14    9   13 1
    15   11   34 1
    16   13   14 1
    17   14   15 1
    18   14   35 1
    19   14   36 1
    20   15   16 1
    21   15   17 1
    22   15   37 1
    23   16   21 1
    24   17   18 1
    25   17   19 1
    26   17   38 1
    27   18   39 1
    28   19   20 1
    29   19   21 1
    30   19   40 1
    31   20   41 1
    32   21   22 1
    33   21   42 1
    34   22   23 ar
    35   22   31 ar
    36   23   24 ar
    37   23   43 1
    38   24   25 ar
    39   24   47 1
    40   25   26 ar
    41   25   31 ar
    42   26   27 1
    43   26   28 ar
    44   27   44 1
    45   27   45 1
    46   28   29 ar
    47   29   30 ar
    48   29   46 1
    49   30   31 ar
@<TRIPOS>SUBSTRUCTURE
     1 ATP         1 GROUP 0 A     ****
@<TRIPOS>MOLECULE
[[[5-(6-amino-7,8-dihydropurin-8-ylium-9-yl)-3,4-dihydroxy-tetrahydrofuran-2-yl]methoxy-hydroxy-phosphoryl]oxy-hydroxy-phosphoryl] hydrogen phosphate
   47    49     1     0     0
SMALL
USER_CHARGES

@<TRIPOS>ATOM
      1 PG          1.7999    0.9785   -7.8816 P.3       1 ATP         1.5449
      2 O1G         2.4201   -0.3950   -7.7510 O.co2     1 ATP        -0.8177
      3 O2G         2.6132    2.1497   -8.3863 O.co2     1 ATP        -0.8177
      4 O3G         0.4512    0.8507   -8.7929 O.3       1 ATP        -0.7779
      5 PB          0.5804    0.4806   -5.2277 P.3       1 ATP         1.9141
      6 O1B         0.0080    1.2520   -4.0752 O.2       1 ATP        -0.8754
      7 O2B        -0.4418   -0.5609   -5.9234 O.3       1 ATP        -0.8083
      8 O3B         1.1166    1.3802   -6.4577 O.3       1 ATP        -0.8025
      9 PA          3.3392   -0.0290   -4.3163 P.3       1 ATP         1.8015
     10 O1A         4.1272    0.9231   -5.1687 O.2       1 ATP        -0.8201
     11 O2A         4.0576   -1.4591   -4.0783 O.3       1 ATP        -0.8103
     12 O3A         1.8781   -0.4177   -4.8854 O.3       1 ATP        -0.8038
     13 O5'         3.0190    0.5130   -2.8246 O.3       1 ATP        -0.5730
     14 C5'         2.2816   -0.2918   -1.9206 C.3       1 ATP         0.1929
     15 C4'         2.7248    0.0226   -0.4980 C.3       1 ATP         0.1044
     16 O4'         2.4697    1.4219   -0.2462 O.3       1 ATP        -0.4079
     17 C3'         1.9404   -0.7419    0.5596 C.3       1 ATP         0.1439
     18 O3'         2.7418   -0.8086    1.7389 O.3       1 ATP        -0.5593
     19 C2'         0.7477    0.1630    0.7858 C.3       1 ATP         0.0644
     20 O2'         0.1373   -0.0577    2.0407 O.3       1 ATP        -0.5595
     21 C1'         1.3733    1.5427    0.6747 C.3       1 ATP         0.3792
     22 N9          0.4520    2.5240    0.1767 N.pl3     1 ATP        -0.5557
     23 C8          0.1928    2.8484   -1.0815 C.ar      1 ATP         0.2849
     24 N7         -0.7248    3.8048   -1.2110 N.pl3     1 ATP        -0.5117
     25 C5         -1.0765    4.1129    0.0571 C.ar      1 ATP        -0.2787
     26 C6         -1.9614    5.0063    0.5851 C.ar      1 ATP         0.7736
     27 N6         -2.7145    5.8254   -0.2810 N.pl3     1 ATP        -0.9480
     28 N1         -2.1199    5.1113    1.9228 N.ar      1 ATP        -0.7442
     29 C2         -1.3522    4.2822    2.6839 C.ar      1 ATP         0.7202
     30 N3         -0.4501    3.3660    2.2638 N.ar      1 ATP        -0.6957
     31 C4         -0.3487    3.3198    0.9322 C.ar      1 ATP         0.6231
     32 HOG3       -0.0701    1.6622   -8.9718 H         1 ATP         0.4452
     33 HOB2       -1.2724   -0.2192   -6.3176 H         1 ATP         0.4969
     34 HOA2        4.2678   -2.0191   -4.8556 H         1 ATP         0.4779
     35 H5'1        1.2149   -0.0786   -2.0446 H         1 ATP         0.0280
     36 H5'2        2.4641   -1.3459   -2.1539 H         1 ATP         0.0280
     37 H4'         3.8049   -0.1388   -0.4009 H         1 ATP         0.2049
     38 H3'         1.6783   -1.7629    0.2715 H         1 ATP         0.1077
     39 HO3'        2.2232   -1.2979    2.3953 H         1 ATP         0.4255
     40 H2'        -0.0011    0.0027    0.0003 H         1 ATP         0.0584
     41 HO2'       -0.6141    0.5574    2.1082 H         1 ATP         0.4149
     42 H1'         1.7826    1.9024    1.6451 H         1 ATP         0.1459
     43 H8          0.6728    2.3873   -1.9272 H         1 ATP         0.2739
     44 HN61       -2.5537    5.7714   -1.2667 H         1 ATP         0.4605
     45 HN62       -3.3283    6.5126    0.1080 H         1 ATP         0.4605
     46 H2         -1.4818    4.3694    3.7565 H         1 ATP         0.0904
     47 H47        -1.0701    4.2005   -2.0743 H         1 ATP         0.5017
@<TRIPOS>BOND
     1    1    2 2
     2    1    3 1
     3    1    4 1
     4    1    8 1
     5    4   32 1
     6    5    6 2
     7    5    7 1
     8    5    8 1
     9    5   12 1
    10    7   33 1
    11    9   10 2
    12    9   11 1
    13    9   12 1
    14    9   13 1
    15   11   34 1
    16   13   14 1
    17   14   15 1
    18   14   35 1
    19   14   36 1
    20   15   16 1
    21   15   17 1
    22   15   37 1
    23   16   21 1
    24   17   18 1
    25   17   19 1
    26   17   38 1
    27   18   39 1
    28   19   20 1
    29   19   21 1
    30   19   40 1
    31   20   41 1
    32   21   22 1
    33   21   42 1
    34   22   23 ar
    35   22   31 ar
    36   23   24 ar
    37   23   43 1
    38   24   25 ar
    39   24   47 1
    40   25   26 ar
    41   25   31 ar
    42   26   27 1
    43   26   28 ar
    44   27   44 1
    45   27   45 1
    46   28   29 ar
    47   29   30 ar
    48   29   46 1
    49   30   31 ar
@<TRIPOS>SUBSTRUCTURE
     1 ATP         1 GROUP 0 A     ****
@<TRIPOS>MOLECULE
[[[5-(6-amino-7,8-dihydropurin-8-ylium-9-yl)-3,4-dihydroxy-tetrahydrofuran-2-yl]methoxy-hydroxy-phosphoryl]oxy-hydroxy-phosphoryl] hydrogen phosphate
   47    49     1     0     0
SMALL
USER_CHARGES

@<TRIPOS>ATOM
      1 PG          1.2707    4.6802   -5.3186 P.3       1 ATP         1.5449
      2 O1G         1.6076    5.3315   -6.6416 O.co2     1 ATP        -0.8177
      3 O2G         2.3471    4.4196   -4.2883 O.co2     1 ATP        -0.8177
      4 O3G         0.0718    5.5350   -4.6133 O.3       1 ATP        -0.7779
      5 PB         -0.2715    2.2477   -4.6233 P.3       1 ATP         1.9141
      6 O1B        -1.3939    2.8218   -3.8101 O.2       1 ATP        -0.8754
      7 O2B        -0.6915    1.0255   -5.5946 O.3       1 ATP        -0.8083
      8 O3B         0.4667    3.2928   -5.6096 O.3       1 ATP        -0.8025
      9 PA          2.3569    0.9674   -4.2305 P.3       1 ATP         1.8015
     10 O1A         3.2462    1.8166   -5.0918 O.2       1 ATP        -0.8201
     11 O2A         1.8897   -0.4193   -4.9210 O.3       1 ATP        -0.8103
     12 O3A         0.9709    1.6610   -3.7745 O.3       1 ATP        -0.8038
     13 O5'         3.0190    0.5130   -2.8246 O.3       1 ATP        -0.5730
     14 C5'         2.2816   -0.2918   -1.9206 C.3       1 ATP         0.1929
     15 C4'         2.7248    0.0226   -0.4980 C.3       1 ATP         0.1044
     16 O4'         2.4697    1.4219   -0.2462 O.3       1 ATP        -0.4079
     17 C3'         1.9404   -0.7419    0.5596 C.3       1 ATP         0.1439
     18 O3'         2.7418   -0.8086    1.7389 O.3       1 ATP        -0.5593
     19 C2'         0.7477    0.1630    0.7858 C.3       1 ATP         0.0644
     20 O2'         0.1373   -0.0577    2.0407 O.3       1 ATP        -0.5595
     21 C1'         1.3733    1.5427    0.6747 C.3       1 ATP         0.3792
     22 N9          0.4520    2.5240    0.1767 N.pl3     1 ATP        -0.5557
     23 C8          0.5305    3.2394   -0.9358 C.ar      1 ATP         0.2849
     24 N7         -0.4966    4.0680   -1.1145 N.pl3     1 ATP        -0.5117
     25 C5         -1.2879    3.8664   -0.0375 C.ar      1 ATP        -0.2787
     26 C6         -2.4754    4.4084    0.3577 C.ar      1 ATP         0.7736
     27 N6         -3.0892    5.3882   -0.4495 N.pl3     1 ATP        -0.9480
     28 N1         -3.0632    4.0158    1.5092 N.ar      1 ATP        -0.7442
     29 C2         -2.4008    3.0654    2.2262 C.ar      1 ATP         0.7202
     30 N3         -1.2259    2.4663    1.9260 N.ar      1 ATP        -0.6957
     31 C4         -0.7062    2.9047    0.7757 C.ar      1 ATP         0.6231
     32 HOG3       -0.2628    5.2377   -3.7405 H         1 ATP         0.4452
     33 HOB2       -0.0035    0.6054   -6.1535 H         1 ATP         0.4969
     34 HOA2        2.5738   -1.0664   -5.1952 H         1 ATP         0.4779
     35 H5'1        1.2149   -0.0786   -2.0446 H         1 ATP         0.0280
     36 H5'2        2.4641   -1.3459   -2.1539 H         1 ATP         0.0280
     37 H4'         3.8049   -0.1388   -0.4009 H         1 ATP         0.2049
     38 H3'         1.6783   -1.7629    0.2715 H         1 ATP         0.1077
     39 HO3'        2.2232   -1.2979    2.3953 H         1 ATP         0.4255
     40 H2'        -0.0011    0.0027    0.0003 H         1 ATP         0.0584
     41 HO2'       -0.1563   -0.9855    2.0596 H         1 ATP         0.4149
     42 H1'         1.7826    1.9024    1.6451 H         1 ATP         0.1459
     43 H8          1.3437    3.1645   -1.6367 H         1 ATP         0.2739
     44 HN61       -2.6210    5.7042   -1.2748 H         1 ATP         0.4605
     45 HN62       -3.9356    5.8187   -0.1356 H         1 ATP         0.4605
     46 H2         -2.8752    2.7532    3.1495 H         1 ATP         0.0904
     47 H47        -0.6372    4.7004   -1.8900 H         1 ATP         0.5017
@<TRIPOS>BOND
     1    1    2 2
     2    1    3 1
     3    1    4 1
     4    1    8 1
     5    4   32 1
     6    5    6 2
     7    5    7 1
     8    5    8 1
     9    5   12 1
    10    7   33 1
    11    9   10 2
    12    9   11 1
    13    9   12 1
    14    9   13 1
    15   11   34 1
    16   13   14 1
    17   14   15 1
    18   14   35 1
    19   14   36 1
    20   15   16 1
    21   15   17 1
    22   15   37 1
    23   16   21 1
    24   17   18 1
    25   17   19 1
    26   17   38 1
    27   18   39 1
    28   19   20 1
    29   19   21 1
    30   19   40 1
    31   20   41 1
    32   21   22 1
    33   21   42 1
    34   22   23 ar
    35   22   31 ar
    36   23   24 ar
    37   23   43 1
    38   24   25 ar
    39   24   47 1
    40   25   26 ar
    41   25   31 ar
    42   26   27 1
    43   26   28 ar
    44   27   44 1
    45   27   45 1
    46   28   29 ar
    47   29   30 ar
    48   29   46 1
    49   30   31 ar
@<TRIPOS>SUBSTRUCTURE
     1 ATP         1 GROUP 0 A     ****
@<TRIPOS>MOLECULE
[[[5-(6-amino-7,8-dihydropurin-8-ylium-9-yl)-3,4-dihydroxy-tetrahydrofuran-2-yl]methoxy-hydroxy-phosphoryl]oxy-hydroxy-phosphoryl] hydrogen phosphate
   47    49     1     0     0
SMALL
USER_CHARGES

@<TRIPOS>ATOM
      1 PG         -4.1448   -5.8695    7.1364 P.3       1 ATP         1.5449
      2 O1G        -4.6051   -7.2876    7.3913 O.co2     1 ATP        -0.8177
      3 O2G        -5.0674   -4.6987    7.3934 O.co2     1 ATP        -0.8177
      4 O3G        -2.7531   -5.6242    7.9541 O.3       1 ATP        -0.7779
      5 PB         -4.3043   -5.9021    4.1780 P.3       1 ATP         1.9141
      6 O1B        -4.9838   -7.2156    3.9250 O.2       1 ATP        -0.8754
      7 O2B        -5.2755   -4.6112    4.1164 O.3       1 ATP        -0.8083
      8 O3B        -3.5739   -5.7718    5.6131 O.3       1 ATP        -0.8025
      9 PA         -1.7115   -6.2808    2.8231 P.3       1 ATP         1.8015
     10 O1A        -1.8458   -7.6751    2.2829 O.2       1 ATP        -0.8201
     11 O2A        -0.8701   -6.1798    4.2014 O.3       1 ATP        -0.8103
     12 O3A        -3.1038   -5.5348    3.1621 O.3       1 ATP        -0.8038
     13 O5'        -0.9730   -5.2421    1.8245 O.3       1 ATP        -0.5730
     14 C5'        -0.7840   -3.8935    2.2172 C.3       1 ATP         0.1929
     15 C4'        -0.0724   -3.1466    1.1027 C.3       1 ATP         0.1044
     16 O4'        -0.8674   -3.1929   -0.0945 O.3       1 ATP        -0.4079
     17 C3'         0.1338   -1.6715    1.4027 C.3       1 ATP         0.1439
     18 O3'         1.2893   -1.4445    2.1808 O.3       1 ATP        -0.5593
     19 C2'         0.2158   -1.0724    0.0128 C.3       1 ATP         0.0644
     20 O2'         1.5141   -1.2448   -0.5513 O.3       1 ATP        -0.5595
     21 C1'        -0.7897   -1.9176   -0.7583 C.3       1 ATP         0.3792
     22 N9         -2.1040   -1.3333   -0.7704 N.pl3     1 ATP        -0.5557
     23 C8         -3.0822   -1.4850    0.1102 C.ar      1 ATP         0.2849
     24 N7         -4.1844   -0.7999   -0.1888 N.pl3     1 ATP        -0.5117
     25 C5         -3.8875   -0.1651   -1.3445 C.ar      1 ATP        -0.2787
     26 C6         -4.5941    0.6799   -2.1486 C.ar      1 ATP         0.7736
     27 N6         -5.9138    1.0274   -1.7939 N.pl3     1 ATP        -0.9480
     28 N1         -4.0421    1.1824   -3.2748 N.ar      1 ATP        -0.7442
     29 C2         -2.7637    0.7937   -3.5405 C.ar      1 ATP         0.7202
     30 N3         -1.9788   -0.0343   -2.8140 N.ar      1 ATP        -0.6957
     31 C4         -2.5915   -0.4902   -1.7174 C.ar      1 ATP         0.6231
     32 HOG3       -2.3231   -4.7448    7.8910 H         1 ATP         0.4452
     33 HOB2       -6.0321   -4.5563    4.7382 H         1 ATP         0.4969
     34 HOA2       -1.1920   -6.6660    4.9901 H         1 ATP         0.4779
     35 H5'1       -1.7611   -3.4417    2.4168 H         1 ATP         0.0280
     36 H5'2       -0.1868   -3.8713    3.1345 H         1 ATP         0.0280
     37 H4'         0.8886   -3.6448    0.8780 H         1 ATP         0.2049
     38 H3'        -0.7373   -1.2358    1.9870 H         1 ATP         0.1077
     39 HO3'        1.3408   -0.4870    2.3219 H         1 ATP         0.4255
     40 H2'        -0.0384   -0.0310    0.0096 H         1 ATP         0.0584
     41 HO2'        2.1463   -0.7958    0.0370 H         1 ATP         0.4149
     42 H1'        -0.4769   -2.1002   -1.8093 H         1 ATP         0.1459
     43 H8         -3.0031   -2.1011    0.9891 H         1 ATP         0.2739
     44 HN61       -6.3271    0.6117   -0.9836 H         1 ATP         0.4605
     45 HN62       -6.4471    1.6092   -2.4083 H         1 ATP         0.4605
     46 H2         -2.3243    1.1986   -4.4449 H         1 ATP         0.0904
     47 H47        -5.0436   -0.7722    0.3425 H         1 ATP         0.5017
@<TRIPOS>BOND
     1    1    2 2
     2    1    3 1
     3    1    4 1
     4    1    8 1
     5    4   32 1
     6    5    6 2
     7    5    7 1
     8    5    8 1
     9    5   12 1
    10    7   33 1
    11    9   10 2
    12    9   11 1
    13    9   12 1
    14    9   13 1
    15   11   34 1
    16   13   14 1
    17   14   15 1
    18   14   35 1
    19   14   36 1
    20   15   16 1
    21   15   17 1
    22   15   37 1
    23   16   21 1
    24   17   18 1
    25   17   19 1
    26   17   38 1
    27   18   39 1
    28   19   20 1
    29   19   21 1
    30   19   40 1
    31   20   41 1
    32   21   22 1
    33   21   42 1
    34   22   23 ar
    35   22   31 ar
    36   23   24 ar
    37   23   43 1
    38   24   25 ar
    39   24   47 1
    40   25   26 ar
    41   25   31 ar
    42   26   27 1
    43   26   28 ar
    44   27   44 1
    45   27   45 1
    46   28   29 ar
    47   29   30 ar
    48   29   46 1
    49   30   31 ar
@<TRIPOS>SUBSTRUCTURE
     1 ATP         1 GROUP 0 A     ****
@<TRIPOS>MOLECULE
[[[5-(6-amino-7,8-dihydropurin-8-ylium-9-yl)-3,4-dihydroxy-tetrahydrofuran-2-yl]methoxy-hydroxy-phosphoryl]oxy-hydroxy-phosphoryl] hydrogen phosphate
   47    49     1     0     0
SMALL
USER_CHARGES

@<TRIPOS>ATOM
      1 PG         -2.6923    1.3448   -5.8123 P.3       1 ATP         1.5449
      2 O1G        -3.5808    1.9608   -4.7543 O.co2     1 ATP        -0.8177
      3 O2G        -3.1460    0.1310   -6.5925 O.co2     1 ATP        -0.8177
      4 O3G        -2.2640    2.5125   -6.8699 O.3       1 ATP        -0.7779
      5 PB          0.1563    0.5300   -5.8039 P.3       1 ATP         1.9141
      6 O1B         0.0917   -0.8070   -6.4815 O.2       1 ATP        -0.8754
      7 O2B         0.6127    1.7538   -6.7565 O.3       1 ATP        -0.8083
      8 O3B        -1.2329    1.0390   -5.1549 O.3       1 ATP        -0.8025
      9 PA          2.7564    0.3912   -4.4176 P.3       1 ATP         1.8015
     10 O1A         3.6045    1.2999   -5.2596 O.2       1 ATP        -0.8201
     11 O2A         2.9489   -1.1831   -4.7370 O.3       1 ATP        -0.8103
     12 O3A         1.1624    0.6216   -4.5439 O.3       1 ATP        -0.8038
     13 O5'         3.0190    0.5130   -2.8246 O.3       1 ATP        -0.5730
     14 C5'         2.2816   -0.2918   -1.9206 C.3       1 ATP         0.1929
     15 C4'         2.7248    0.0226   -0.4980 C.3       1 ATP         0.1044
     16 O4'         2.4697    1.4219   -0.2462 O.3       1 ATP        -0.4079
     17 C3'         1.9404   -0.7419    0.5596 C.3       1 ATP         0.1439
     18 O3'         2.7418   -0.8086    1.7389 O.3       1 ATP        -0.5593
     19 C2'         0.7477    0.1630    0.7858 C.3       1 ATP         0.0644
     20 O2'         0.1373   -0.0577    2.0407 O.3       1 ATP        -0.5595
     21 C1'         1.3733    1.5427    0.6747 C.3       1 ATP         0.3792
     22 N9          0.4520    2.5240    0.1767 N.pl3     1 ATP        -0.5557
     23 C8         -0.2172    2.5216   -0.9668 C.ar      1 ATP         0.2849
     24 N7         -1.0011    3.5855   -1.1321 N.pl3     1 ATP        -0.5117
     25 C5         -0.8184    4.3200   -0.0123 C.ar      1 ATP        -0.2787
     26 C6         -1.3349    5.5079    0.4144 C.ar      1 ATP         0.7736
     27 N6         -2.2567    6.1930   -0.4036 N.pl3     1 ATP        -0.9480
     28 N1         -0.9716    6.0291    1.6069 N.ar      1 ATP        -0.7442
     29 C2         -0.0765    5.3009    2.3312 C.ar      1 ATP         0.7202
     30 N3          0.4933    4.1191    2.0023 N.ar      1 ATP        -0.6957
     31 C4          0.0865    3.6675    0.8123 C.ar      1 ATP         0.6231
     32 HOG3       -1.6828    2.2709   -7.6223 H         1 ATP         0.4452
     33 HOB2        0.6750    2.6550   -6.3745 H         1 ATP         0.4969
     34 HOA2        3.8370   -1.5843   -4.6259 H         1 ATP         0.4779
     35 H5'1        1.2149   -0.0786   -2.0446 H         1 ATP         0.0280
     36 H5'2        2.4641   -1.3459   -2.1539 H         1 ATP         0.0280
     37 H4'         3.8049   -0.1388   -0.4009 H         1 ATP         0.2049
     38 H3'         1.6783   -1.7629    0.2715 H         1 ATP         0.1077
     39 HO3'        3.5554   -1.2733    1.4914 H         1 ATP         0.4255
     40 H2'        -0.0011    0.0027    0.0003 H         1 ATP         0.0584
     41 HO2'       -0.6141    0.5574    2.1082 H         1 ATP         0.4149
     42 H1'         1.7826    1.9024    1.6451 H         1 ATP         0.1459
     43 H8         -0.1423    1.7373   -1.6999 H         1 ATP         0.2739
     44 HN61       -2.4811    5.8206   -1.3042 H         1 ATP         0.4605
     45 HN62       -2.5986    7.0863   -0.1113 H         1 ATP         0.4605
     46 H2          0.2128    5.7222    3.2871 H         1 ATP         0.0904
     47 H47        -1.5947    3.7835   -1.9255 H         1 ATP         0.5017
@<TRIPOS>BOND
     1    1    2 2
     2    1    3 1
     3    1    4 1
     4    1    8 1
     5    4   32 1
     6    5    6 2
     7    5    7 1
     8    5    8 1
     9    5   12 1
    10    7   33 1
    11    9   10 2
    12    9   11 1
    13    9   12 1
    14    9   13 1
    15   11   34 1
    16   13   14 1
    17   14   15 1
    18   14   35 1
    19   14   36 1
    20   15   16 1
    21   15   17 1
    22   15   37 1
    23   16   21 1
    24   17   18 1
    25   17   19 1
    26   17   38 1
    27   18   39 1
    28   19   20 1
    29   19   21 1
    30   19   40 1
    31   20   41 1
    32   21   22 1
    33   21   42 1
    34   22   23 ar
    35   22   31 ar
    36   23   24 ar
    37   23   43 1
    38   24   25 ar
    39   24   47 1
    40   25   26 ar
    41   25   31 ar
    42   26   27 1
    43   26   28 ar
    44   27   44 1
    45   27   45 1
    46   28   29 ar
    47   29   30 ar
    48   29   46 1
    49   30   31 ar
@<TRIPOS>SUBSTRUCTURE
     1 ATP         1 GROUP 0 A     ****
@<TRIPOS>MOLECULE
[[[5-(6-amino-7,8-dihydropurin-8-ylium-9-yl)-3,4-dihydroxy-tetrahydrofuran-2-yl]methoxy-hydroxy-phosphoryl]oxy-hydroxy-phosphoryl] hydrogen phosphate
   47    49     1     0     0
SMALL
USER_CHARGES

@<TRIPOS>ATOM
      1 PG          6.0796    1.5268   -4.5818 P.3       1 ATP         1.5449
      2 O1G         5.3122    2.3559   -5.5877 O.co2     1 ATP        -0.8177
      3 O2G         7.4789    1.9195   -4.1625 O.co2     1 ATP        -0.8177
      4 O3G         5.1619    1.3624   -3.2416 O.3       1 ATP        -0.7779
      5 PB          4.8985   -1.0269   -5.5100 P.3       1 ATP         1.9141
      6 O1B         4.0680   -0.5722   -6.6738 O.2       1 ATP        -0.8754
      7 O2B         5.6408   -2.4479   -5.7184 O.3       1 ATP        -0.8083
      8 O3B         6.0907   -0.0237   -5.0833 O.3       1 ATP        -0.8025
      9 PA          2.8569   -2.1455   -3.6982 P.3       1 ATP         1.8015
     10 O1A         3.0916   -3.6213   -3.8417 O.2       1 ATP        -0.8201
     11 O2A         1.6263   -1.5787   -4.5826 O.3       1 ATP        -0.8103
     12 O3A         4.1019   -1.2047   -4.1164 O.3       1 ATP        -0.8038
     13 O5'         2.5233   -1.6623   -2.1893 O.3       1 ATP        -0.5730
     14 C5'         2.2816   -0.2918   -1.9206 C.3       1 ATP         0.1929
     15 C4'         2.7248    0.0226   -0.4980 C.3       1 ATP         0.1044
     16 O4'         2.4697    1.4219   -0.2462 O.3       1 ATP        -0.4079
     17 C3'         1.9404   -0.7419    0.5596 C.3       1 ATP         0.1439
     18 O3'         2.7418   -0.8086    1.7389 O.3       1 ATP        -0.5593
     19 C2'         0.7477    0.1630    0.7858 C.3       1 ATP         0.0644
     20 O2'         0.1373   -0.0577    2.0407 O.3       1 ATP        -0.5595
     21 C1'         1.3733    1.5427    0.6747 C.3       1 ATP         0.3792
     22 N9          0.4520    2.5240    0.1767 N.pl3     1 ATP        -0.5557
     23 C8         -0.2172    2.5216   -0.9668 C.ar      1 ATP         0.2849
     24 N7         -1.0011    3.5855   -1.1321 N.pl3     1 ATP        -0.5117
     25 C5         -0.8184    4.3200   -0.0123 C.ar      1 ATP        -0.2787
     26 C6         -1.3349    5.5079    0.4144 C.ar      1 ATP         0.7736
     27 N6         -2.2567    6.1930   -0.4036 N.pl3     1 ATP        -0.9480
     28 N1         -0.9716    6.0291    1.6069 N.ar      1 ATP        -0.7442
     29 C2         -0.0765    5.3009    2.3312 C.ar      1 ATP         0.7202
     30 N3          0.4933    4.1191    2.0023 N.ar      1 ATP        -0.6957
     31 C4          0.0865    3.6675    0.8123 C.ar      1 ATP         0.6231
     32 HOG3        5.5221    0.8460   -2.4893 H         1 ATP         0.4452
     33 HOB2        5.0976   -3.2469   -5.8876 H         1 ATP         0.4969
     34 HOA2        1.6578   -1.6789   -5.5579 H         1 ATP         0.4779
     35 H5'1        2.8428    0.3149   -2.6387 H         1 ATP         0.0280
     36 H5'2        1.2124   -0.0897   -2.0417 H         1 ATP         0.0280
     37 H4'         3.8049   -0.1388   -0.4009 H         1 ATP         0.2049
     38 H3'         1.6783   -1.7629    0.2715 H         1 ATP         0.1077
     39 HO3'        2.2232   -1.2979    2.3953 H         1 ATP         0.4255
     40 H2'        -0.0011    0.0027    0.0003 H         1 ATP         0.0584
     41 HO2'       -0.1563   -0.9855    2.0596 H         1 ATP         0.4149
     42 H1'         1.7826    1.9024    1.6451 H         1 ATP         0.1459
     43 H8         -0.1423    1.7373   -1.6999 H         1 ATP         0.2739
     44 HN61       -2.4811    5.8206   -1.3042 H         1 ATP         0.4605
     45 HN62       -2.5986    7.0863   -0.1113 H         1 ATP         0.4605
     46 H2          0.2128    5.7222    3.2871 H         1 ATP         0.0904
     47 H47        -1.5947    3.7835   -1.9255 H         1 ATP         0.5017
@<TRIPOS>BOND
     1    1    2 2
     2    1    3 1
     3    1    4 1
     4    1    8 1
     5    4   32 1
     6    5    6 2
     7    5    7 1
     8    5    8 1
     9    5   12 1
    10    7   33 1
    11    9   10 2
    12    9   11 1
    13    9   12 1
    14    9   13 1
    15   11   34 1
    16   13   14 1
    17   14   15 1
    18   14   35 1
    19   14   36 1
    20   15   16 1
    21   15   17 1
    22   15   37 1
    23   16   21 1
    24   17   18 1
    25   17   19 1
    26   17   38 1
    27   18   39 1
    28   19   20 1
    29   19   21 1
    30   19   40 1
    31   20   41 1
    32   21   22 1
    33   21   42 1
    34   22   23 ar
    35   22   31 ar
    36   23   24 ar
    37   23   43 1
    38   24   25 ar
    39   24   47 1
    40   25   26 ar
    41   25   31 ar
    42   26   27 1
    43   26   28 ar
    44   27   44 1
    45   27   45 1
    46   28   29 ar
    47   29   30 ar
    48   29   46 1
    49   30   31 ar
@<TRIPOS>SUBSTRUCTURE
     1 ATP         1 GROUP 0 A     ****
@<TRIPOS>MOLECULE
[[[5-(6-amino-7,8-dihydropurin-8-ylium-9-yl)-3,4-dihydroxy-tetrahydrofuran-2-yl]methoxy-hydroxy-phosphoryl]oxy-hydroxy-phosphoryl] hydrogen phosphate
   47    49     1     0     0
SMALL
USER_CHARGES

@<TRIPOS>ATOM
      1 PG          2.2387   -3.7265   -6.9784 P.3       1 ATP         1.5449
      2 O1G         2.3863   -3.5288   -8.4707 O.co2     1 ATP        -0.8177
      3 O2G         0.8717   -3.7375   -6.3310 O.co2     1 ATP        -0.8177
      4 O3G         3.0236   -5.0954   -6.5593 O.3       1 ATP        -0.7779
      5 PB          2.8535   -1.1960   -5.5653 P.3       1 ATP         1.9141
      6 O1B         4.0244   -0.4969   -4.9398 O.2       1 ATP        -0.8754
      7 O2B         2.1390   -0.3836   -6.7666 O.3       1 ATP        -0.8083
      8 O3B         3.1808   -2.6396   -6.2122 O.3       1 ATP        -0.8025
      9 PA          1.5750   -2.4636   -3.2285 P.3       1 ATP         1.8015
     10 O1A         1.9420   -3.9067   -3.4205 O.2       1 ATP        -0.8201
     11 O2A         0.0757   -2.2276   -2.6680 O.3       1 ATP        -0.8103
     12 O3A         1.6402   -1.5518   -4.5606 O.3       1 ATP        -0.8038
     13 O5'         2.5233   -1.6623   -2.1893 O.3       1 ATP        -0.5730
     14 C5'         2.2816   -0.2918   -1.9206 C.3       1 ATP         0.1929
     15 C4'         2.7248    0.0226   -0.4980 C.3       1 ATP         0.1044
     16 O4'         2.4697    1.4219   -0.2462 O.3       1 ATP        -0.4079
     17 C3'         1.9404   -0.7419    0.5596 C.3       1 ATP         0.1439
     18 O3'         2.7418   -0.8086    1.7389 O.3       1 ATP        -0.5593
     19 C2'         0.7477    0.1630    0.7858 C.3       1 ATP         0.0644
     20 O2'         0.1373   -0.0577    2.0407 O.3       1 ATP        -0.5595
     21 C1'         1.3733    1.5427    0.6747 C.3       1 ATP         0.3792
     22 N9          0.4520    2.5240    0.1767 N.pl3     1 ATP        -0.5557
     23 C8          0.1928    2.8484   -1.0815 C.ar      1 ATP         0.2849
     24 N7         -0.7248    3.8048   -1.2110 N.pl3     1 ATP        -0.5117
     25 C5         -1.0765    4.1129    0.0571 C.ar      1 ATP        -0.2787
     26 C6         -1.9614    5.0063    0.5851 C.ar      1 ATP         0.7736
     27 N6         -2.7145    5.8254   -0.2810 N.pl3     1 ATP        -0.9480
     28 N1         -2.1199    5.1113    1.9228 N.ar      1 ATP        -0.7442
     29 C2         -1.3522    4.2822    2.6839 C.ar      1 ATP         0.7202
     30 N3         -0.4501    3.3660    2.2638 N.ar      1 ATP        -0.6957
     31 C4         -0.3487    3.3198    0.9322 C.ar      1 ATP         0.6231
     32 HOG3        3.0213   -5.3650   -5.6162 H         1 ATP         0.4452
     33 HOB2        2.6658   -0.1489   -7.5600 H         1 ATP         0.4969
     34 HOA2       -0.6842   -2.5554   -3.1944 H         1 ATP         0.4779
     35 H5'1        2.8428    0.3149   -2.6387 H         1 ATP         0.0280
     36 H5'2        1.2124   -0.0897   -2.0417 H         1 ATP         0.0280
     37 H4'         3.8049   -0.1388   -0.4009 H         1 ATP         0.2049
     38 H3'         1.6783   -1.7629    0.2715 H         1 ATP         0.1077
     39 HO3'        3.5554   -1.2733    1.4914 H         1 ATP         0.4255
     40 H2'        -0.0011    0.0027    0.0003 H         1 ATP         0.0584
     41 HO2'       -0.6141    0.5574    2.1082 H         1 ATP         0.4149
     42 H1'         1.7826    1.9024    1.6451 H         1 ATP         0.1459
     43 H8          0.6728    2.3873   -1.9272 H         1 ATP         0.2739
     44 HN61       -2.5537    5.7714   -1.2667 H         1 ATP         0.4605
     45 HN62       -3.3283    6.5126    0.1080 H         1 ATP         0.4605
     46 H2         -1.4818    4.3694    3.7565 H         1 ATP         0.0904
     47 H47        -1.0701    4.2005   -2.0743 H         1 ATP         0.5017
@<TRIPOS>BOND
     1    1    2 2
     2    1    3 1
     3    1    4 1
     4    1    8 1
     5    4   32 1
     6    5    6 2
     7    5    7 1
     8    5    8 1
     9    5   12 1
    10    7   33 1
    11    9   10 2
    12    9   11 1
    13    9   12 1
    14    9   13 1
    15   11   34 1
    16   13   14 1
    17   14   15 1
    18   14   35 1
    19   14   36 1
    20   15   16 1
    21   15   17 1
    22   15   37 1
    23   16   21 1
    24   17   18 1
    25   17   19 1
    26   17   38 1
    27   18   39 1
    28   19   20 1
    29   19   21 1
    30   19   40 1
    31   20   41 1
    32   21   22 1
    33   21   42 1
    34   22   23 ar
    35   22   31 ar
    36   23   24 ar
    37   23   43 1
    38   24   25 ar
    39   24   47 1
    40   25   26 ar
    41   25   31 ar
    42   26   27 1
    43   26   28 ar
    44   27   44 1
    45   27   45 1
    46   28   29 ar
    47   29   30 ar
    48   29   46 1
    49   30   31 ar
@<TRIPOS>SUBSTRUCTURE
     1 ATP         1 GROUP 0 A     ****
@<TRIPOS>MOLECULE
[[[5-(6-amino-7,8-dihydropurin-8-ylium-9-yl)-3,4-dihydroxy-tetrahydrofuran-2-yl]methoxy-hydroxy-phosphoryl]oxy-hydroxy-phosphoryl] hydrogen phosphate
   47    49     1     0     0
SMALL
USER_CHARGES

@<TRIPOS>ATOM
      1 PG         -0.8800    4.8999   -4.2899 P.3       1 ATP         1.5449
      2 O1G        -2.3072    4.4330   -4.1074 O.co2     1 ATP        -0.8177
      3 O2G        -0.4557    5.6150   -5.5535 O.co2     1 ATP        -0.8177
      4 O3G        -0.4716    5.8238   -3.0073 O.3       1 ATP        -0.7779
      5 PB          0.8366    2.6071   -5.0480 P.3       1 ATP         1.9141
      6 O1B        -0.0959    1.7983   -5.9007 O.2       1 ATP        -0.8754
      7 O2B         1.8797    3.5306   -5.8682 O.3       1 ATP        -0.8083
      8 O3B         0.1188    3.6383   -4.0324 O.3       1 ATP        -0.8025
      9 PA          2.8849    0.6141   -4.3169 P.3       1 ATP         1.8015
     10 O1A         4.0462    1.0377   -5.1688 O.2       1 ATP        -0.8201
     11 O2A         2.0328   -0.6216   -4.9208 O.3       1 ATP        -0.8103
     12 O3A         1.7748    1.7562   -4.0460 O.3       1 ATP        -0.8038
     13 O5'         3.2874    0.1332   -2.8242 O.3       1 ATP        -0.5730
     14 C5'         2.2816   -0.2918   -1.9206 C.3       1 ATP         0.1929
     15 C4'         2.7248    0.0226   -0.4980 C.3       1 ATP         0.1044
     16 O4'         2.4697    1.4219   -0.2462 O.3       1 ATP        -0.4079
     17 C3'         1.9404   -0.7419    0.5596 C.3       1 ATP         0.1439
     18 O3'         2.7418   -0.8086    1.7389 O.3       1 ATP        -0.5593
     19 C2'         0.7477    0.1630    0.7858 C.3       1 ATP         0.0644
     20 O2'         0.1373   -0.0577    2.0407 O.3       1 ATP        -0.5595
     21 C1'         1.3733    1.5427    0.6747 C.3       1 ATP         0.3792
     22 N9          0.4520    2.5240    0.1767 N.pl3     1 ATP        -0.5557
     23 C8         -0.2172    2.5216   -0.9668 C.ar      1 ATP         0.2849
     24 N7         -1.0011    3.5855   -1.1321 N.pl3     1 ATP        -0.5117
     25 C5         -0.8184    4.3200   -0.0123 C.ar      1 ATP        -0.2787
     26 C6         -1.3349    5.5079    0.4144 C.ar      1 ATP         0.7736
     27 N6         -2.2567    6.1930   -0.4036 N.pl3     1 ATP        -0.9480
     28 N1         -0.9716    6.0291    1.6069 N.ar      1 ATP        -0.7442
     29 C2         -0.0765    5.3009    2.3312 C.ar      1 ATP         0.7202
     30 N3          0.4933    4.1191    2.0023 N.ar      1 ATP        -0.6957
     31 C4          0.0865    3.6675    0.8123 C.ar      1 ATP         0.6231
     32 HOG3        0.4312    6.2062   -2.9757 H         1 ATP         0.4452
     33 HOB2        2.5172    4.0844   -5.3694 H         1 ATP         0.4969
     34 HOA2        1.6061   -0.5193   -5.7981 H         1 ATP         0.4779
     35 H5'1        1.3494    0.2323   -2.1552 H         1 ATP         0.0280
     36 H5'2        2.1260   -1.3686   -2.0436 H         1 ATP         0.0280
     37 H4'         3.8049   -0.1388   -0.4009 H         1 ATP         0.2049
     38 H3'         1.6783   -1.7629    0.2715 H         1 ATP         0.1077
     39 HO3'        2.2232   -1.2979    2.3953 H         1 ATP         0.4255
     40 H2'        -0.0011    0.0027    0.0003 H         1 ATP         0.0584
     41 HO2'       -0.6141    0.5574    2.1082 H         1 ATP         0.4149
     42 H1'         1.7826    1.9024    1.6451 H         1 ATP         0.1459
     43 H8         -0.1423    1.7373   -1.6999 H         1 ATP         0.2739
     44 HN61       -2.4811    5.8206   -1.3042 H         1 ATP         0.4605
     45 HN62       -2.5986    7.0863   -0.1113 H         1 ATP         0.4605
     46 H2          0.2128    5.7222    3.2871 H         1 ATP         0.0904
     47 H47        -1.5947    3.7835   -1.9255 H         1 ATP         0.5017
@<TRIPOS>BOND
     1    1    2 2
     2    1    3 1
     3    1    4 1
     4    1    8 1
     5    4   32 1
     6    5    6 2
     7    5    7 1
     8    5    8 1
     9    5   12 1
    10    7   33 1
    11    9   10 2
    12    9   11 1
    13    9   12 1
    14    9   13 1
    15   11   34 1
    16   13   14 1
    17   14   15 1
    18   14   35 1
    19   14   36 1
    20   15   16 1
    21   15   17 1
    22   15   37 1
    23   16   21 1
    24   17   18 1
    25   17   19 1
    26   17   38 1
    27   18   39 1
    28   19   20 1
    29   19   21 1
    30   19   40 1
    31   20   41 1
    32   21   22 1
    33   21   42 1
    34   22   23 ar
    35   22   31 ar
    36   23   24 ar
    37   23   43 1
    38   24   25 ar
    39   24   47 1
    40   25   26 ar
    41   25   31 ar
    42   26   27 1
    43   26   28 ar
    44   27   44 1
    45   27   45 1
    46   28   29 ar
    47   29   30 ar
    48   29   46 1
    49   30   31 ar
@<TRIPOS>SUBSTRUCTURE
     1 ATP         1 GROUP 0 A     ****
@<TRIPOS>MOLECULE
[[[5-(6-amino-7,8-dihydropurin-8-ylium-9-yl)-3,4-dihydroxy-tetrahydrofuran-2-yl]methoxy-hydroxy-phosphoryl]oxy-hydroxy-phosphoryl] hydrogen phosphate
   47    49     1     0     0
SMALL
USER_CHARGES

@<TRIPOS>ATOM
      1 PG         -5.6692   -4.1378    3.1601 P.3       1 ATP         1.5449
      2 O1G        -4.6340   -3.4350    2.3102 O.co2     1 ATP        -0.8177
      3 O2G        -6.0164   -3.6234    4.5395 O.co2     1 ATP        -0.8177
      4 O3G        -7.0459   -4.2692    2.2923 O.3       1 ATP        -0.7779
      5 PB         -4.0329   -6.4712    3.9700 P.3       1 ATP         1.9141
      6 O1B        -3.9151   -6.2604    5.4507 O.2       1 ATP        -0.8754
      7 O2B        -4.2054   -8.0127    3.5142 O.3       1 ATP        -0.8083
      8 O3B        -5.2746   -5.7155    3.2651 O.3       1 ATP        -0.8025
      9 PA         -1.2163   -6.3334    3.1041 P.3       1 ATP         1.8015
     10 O1A        -0.9116   -7.7743    2.8129 O.2       1 ATP        -0.8201
     11 O2A        -0.6988   -5.8232    4.5497 O.3       1 ATP        -0.8103
     12 O3A        -2.7840   -5.9434    3.0925 O.3       1 ATP        -0.8038
     13 O5'        -0.5702   -5.2849    2.0530 O.3       1 ATP        -0.5730
     14 C5'        -0.7840   -3.8935    2.2172 C.3       1 ATP         0.1929
     15 C4'        -0.0724   -3.1466    1.1027 C.3       1 ATP         0.1044
     16 O4'        -0.8674   -3.1929   -0.0945 O.3       1 ATP        -0.4079
     17 C3'         0.1338   -1.6715    1.4027 C.3       1 ATP         0.1439
     18 O3'         1.2893   -1.4445    2.1808 O.3       1 ATP        -0.5593
     19 C2'         0.2158   -1.0724    0.0128 C.3       1 ATP         0.0644
     20 O2'         1.5141   -1.2448   -0.5513 O.3       1 ATP        -0.5595
     21 C1'        -0.7897   -1.9176   -0.7583 C.3       1 ATP         0.3792
     22 N9         -2.1040   -1.3333   -0.7704 N.pl3     1 ATP        -0.5557
     23 C8         -3.0822   -1.4850    0.1102 C.ar      1 ATP         0.2849
     24 N7         -4.1844   -0.7999   -0.1888 N.pl3     1 ATP        -0.5117
     25 C5         -3.8875   -0.1651   -1.3445 C.ar      1 ATP        -0.2787
     26 C6         -4.5941    0.6799   -2.1486 C.ar      1 ATP         0.7736
     27 N6         -5.9138    1.0274   -1.7939 N.pl3     1 ATP        -0.9480
     28 N1         -4.0421    1.1824   -3.2748 N.ar      1 ATP        -0.7442
     29 C2         -2.7637    0.7937   -3.5405 C.ar      1 ATP         0.7202
     30 N3         -1.9788   -0.0343   -2.8140 N.ar      1 ATP        -0.6957
     31 C4         -2.5915   -0.4902   -1.7174 C.ar      1 ATP         0.6231
     32 HOG3       -7.8199   -4.7061    2.7075 H         1 ATP         0.4452
     33 HOB2       -3.5015   -8.6566    3.7422 H         1 ATP         0.4969
     34 HOA2       -1.0393   -6.2633    5.3575 H         1 ATP         0.4779
     35 H5'1       -1.8600   -3.6936    2.1849 H         1 ATP         0.0280
     36 H5'2       -0.3935   -3.5871    3.1930 H         1 ATP         0.0280
     37 H4'         0.8886   -3.6448    0.8780 H         1 ATP         0.2049
     38 H3'        -0.7373   -1.2358    1.9870 H         1 ATP         0.1077
     39 HO3'        1.3408   -0.4870    2.3219 H         1 ATP         0.4255
     40 H2'        -0.0384   -0.0310    0.0096 H         1 ATP         0.0584
     41 HO2'        2.1463   -0.7958    0.0370 H         1 ATP         0.4149
     42 H1'        -0.4769   -2.1002   -1.8093 H         1 ATP         0.1459
     43 H8         -3.0031   -2.1011    0.9891 H         1 ATP         0.2739
     44 HN61       -6.3271    0.6117   -0.9836 H         1 ATP         0.4605
     45 HN62       -6.4471    1.6092   -2.4083 H         1 ATP         0.4605
     46 H2         -2.3243    1.1986   -4.4449 H         1 ATP         0.0904
     47 H47        -5.0436   -0.7722    0.3425 H         1 ATP         0.5017
@<TRIPOS>BOND
     1    1    2 2
     2    1    3 1
     3    1    4 1
     4    1    8 1
     5    4   32 1
     6    5    6 2
     7    5    7 1
     8    5    8 1
     9    5   12 1
    10    7   33 1
    11    9   10 2
    12    9   11 1
    13    9   12 1
    14    9   13 1
    15   11   34 1
    16   13   14 1
    17   14   15 1
    18   14   35 1
    19   14   36 1
    20   15   16 1
    21   15   17 1
    22   15   37 1
    23   16   21 1
    24   17   18 1
    25   17   19 1
    26   17   38 1
    27   18   39 1
    28   19   20 1
    29   19   21 1
    30   19   40 1
    31   20   41 1
    32   21   22 1
    33   21   42 1
    34   22   23 ar
    35   22   31 ar
    36   23   24 ar
    37   23   43 1
    38   24   25 ar
    39   24   47 1
    40   25   26 ar
    41   25   31 ar
    42   26   27 1
    43   26   28 ar
    44   27   44 1
    45   27   45 1
    46   28   29 ar
    47   29   30 ar
    48   29   46 1
    49   30   31 ar
@<TRIPOS>SUBSTRUCTURE
     1 ATP         1 GROUP 0 A     ****
@<TRIPOS>MOLECULE
[[[5-(6-amino-7,8-dihydropurin-8-ylium-9-yl)-3,4-dihydroxy-tetrahydrofuran-2-yl]methoxy-hydroxy-phosphoryl]oxy-hydroxy-phosphoryl] hydrogen phosphate
   47    49     1     0     0
SMALL
USER_CHARGES

@<TRIPOS>ATOM
      1 PG          1.0149   -4.1866   -6.6771 P.3       1 ATP         1.5449
      2 O1G         1.8409   -5.3716   -6.2281 O.co2     1 ATP        -0.8177
      3 O2G         0.8731   -3.8546   -8.1460 O.co2     1 ATP        -0.8177
      4 O3G        -0.4771   -4.3223   -6.0282 O.3       1 ATP        -0.7779
      5 PB          1.4227   -1.2867   -6.2270 P.3       1 ATP         1.9141
      6 O1B         2.0838   -0.8705   -7.5079 O.2       1 ATP        -0.8754
      7 O2B        -0.1615   -0.9746   -6.1468 O.3       1 ATP        -0.8083
      8 O3B         1.5275   -2.8609   -5.8798 O.3       1 ATP        -0.8025
      9 PA          3.4957   -0.6445   -4.2289 P.3       1 ATP         1.8015
     10 O1A         4.5940   -0.0911   -5.0900 O.2       1 ATP        -0.8201
     11 O2A         3.6994   -2.1925   -3.8046 O.3       1 ATP        -0.8103
     12 O3A         2.0205   -0.6125   -4.8867 O.3       1 ATP        -0.8038
     13 O5'         3.2874    0.1332   -2.8242 O.3       1 ATP        -0.5730
     14 C5'         2.2816   -0.2918   -1.9206 C.3       1 ATP         0.1929
     15 C4'         2.7248    0.0226   -0.4980 C.3       1 ATP         0.1044
     16 O4'         2.4697    1.4219   -0.2462 O.3       1 ATP        -0.4079
     17 C3'         1.9404   -0.7419    0.5596 C.3       1 ATP         0.1439
     18 O3'         2.7418   -0.8086    1.7389 O.3       1 ATP        -0.5593
     19 C2'         0.7477    0.1630    0.7858 C.3       1 ATP         0.0644
     20 O2'         0.1373   -0.0577    2.0407 O.3       1 ATP        -0.5595
     21 C1'         1.3733    1.5427    0.6747 C.3       1 ATP         0.3792
     22 N9          0.4520    2.5240    0.1767 N.pl3     1 ATP        -0.5557
     23 C8          0.1928    2.8484   -1.0815 C.ar      1 ATP         0.2849
     24 N7         -0.7248    3.8048   -1.2110 N.pl3     1 ATP        -0.5117
     25 C5         -1.0765    4.1129    0.0571 C.ar      1 ATP        -0.2787
     26 C6         -1.9614    5.0063    0.5851 C.ar      1 ATP         0.7736
     27 N6         -2.7145    5.8254   -0.2810 N.pl3     1 ATP        -0.9480
     28 N1         -2.1199    5.1113    1.9228 N.ar      1 ATP        -0.7442
     29 C2         -1.3522    4.2822    2.6839 C.ar      1 ATP         0.7202
     30 N3         -0.4501    3.3660    2.2638 N.ar      1 ATP        -0.6957
     31 C4         -0.3487    3.3198    0.9322 C.ar      1 ATP         0.6231
     32 HOG3       -1.1378   -3.6250   -6.2266 H         1 ATP         0.4452
     33 HOB2       -0.7594   -1.3810   -6.8097 H         1 ATP         0.4969
     34 HOA2        3.7592   -2.8731   -4.5084 H         1 ATP         0.4779
     35 H5'1        1.3494    0.2323   -2.1552 H         1 ATP         0.0280
     36 H5'2        2.1260   -1.3686   -2.0436 H         1 ATP         0.0280
     37 H4'         3.8049   -0.1388   -0.4009 H         1 ATP         0.2049
     38 H3'         1.6783   -1.7629    0.2715 H         1 ATP         0.1077
     39 HO3'        2.2232   -1.2979    2.3953 H         1 ATP         0.4255
     40 H2'        -0.0011    0.0027    0.0003 H         1 ATP         0.0584
     41 HO2'       -0.1563   -0.9855    2.0596 H         1 ATP         0.4149
     42 H1'         1.7826    1.9024    1.6451 H         1 ATP         0.1459
     43 H8          0.6728    2.3873   -1.9272 H         1 ATP         0.2739
     44 HN61       -2.5537    5.7714   -1.2667 H         1 ATP         0.4605
     45 HN62       -3.3283    6.5126    0.1080 H         1 ATP         0.4605
     46 H2         -1.4818    4.3694    3.7565 H         1 ATP         0.0904
     47 H47        -1.0701    4.2005   -2.0743 H         1 ATP         0.5017
@<TRIPOS>BOND
     1    1    2 2
     2    1    3 1
     3    1    4 1
     4    1    8 1
     5    4   32 1
     6    5    6 2
     7    5    7 1
     8    5    8 1
     9    5   12 1
    10    7   33 1
    11    9   10 2
    12    9   11 1
    13    9   12 1
    14    9   13 1
    15   11   34 1
    16   13   14 1
    17   14   15 1
    18   14   35 1
    19   14   36 1
    20   15   16 1
    21   15   17 1
    22   15   37 1
    23   16   21 1
    24   17   18 1
    25   17   19 1
    26   17   38 1
    27   18   39 1
    28   19   20 1
    29   19   21 1
    30   19   40 1
    31   20   41 1
    32   21   22 1
    33   21   42 1
    34   22   23 ar
    35   22   31 ar
    36   23   24 ar
    37   23   43 1
    38   24   25 ar
    39   24   47 1
    40   25   26 ar
    41   25   31 ar
    42   26   27 1
    43   26   28 ar
    44   27   44 1
    45   27   45 1
    46   28   29 ar
    47   29   30 ar
    48   29   46 1
    49   30   31 ar
@<TRIPOS>SUBSTRUCTURE
     1 ATP         1 GROUP 0 A     ****
@<TRIPOS>MOLECULE
[[[5-(6-amino-7,8-dihydropurin-8-ylium-9-yl)-3,4-dihydroxy-tetrahydrofuran-2-yl]methoxy-hydroxy-phosphoryl]oxy-hydroxy-phosphoryl] hydrogen phosphate
   47    49     1     0     0
SMALL
USER_CHARGES

@<TRIPOS>ATOM
      1 PG          3.2782    2.5219   -7.4686 P.3       1 ATP         1.5449
      2 O1G         2.7423    3.6409   -8.3340 O.co2     1 ATP        -0.8177
      3 O2G         2.7516    1.1115   -7.6141 O.co2     1 ATP        -0.8177
      4 O3G         4.9037    2.4882   -7.6175 O.3       1 ATP        -0.7779
      5 PB          2.0581    2.6662   -4.7725 P.3       1 ATP         1.9141
      6 O1B         2.3317    3.2788   -3.4306 O.2       1 ATP        -0.8754
      7 O2B         0.6661    3.1218   -5.4569 O.3       1 ATP        -0.8083
      8 O3B         3.1677    2.9718   -5.9062 O.3       1 ATP        -0.8025
      9 PA          3.0863   -0.0757   -4.4171 P.3       1 ATP         1.8015
     10 O1A         4.3570   -0.0352   -5.2156 O.2       1 ATP        -0.8201
     11 O2A         2.2680   -1.4661   -4.5396 O.3       1 ATP        -0.8103
     12 O3A         1.9950    1.0527   -4.7988 O.3       1 ATP        -0.8038
     13 O5'         3.2874    0.1332   -2.8242 O.3       1 ATP        -0.5730
     14 C5'         2.2816   -0.2918   -1.9206 C.3       1 ATP         0.1929
     15 C4'         2.7248    0.0226   -0.4980 C.3       1 ATP         0.1044
     16 O4'         2.4697    1.4219   -0.2462 O.3       1 ATP        -0.4079
     17 C3'         1.9404   -0.7419    0.5596 C.3       1 ATP         0.1439
     18 O3'         2.7418   -0.8086    1.7389 O.3       1 ATP        -0.5593
     19 C2'         0.7477    0.1630    0.7858 C.3       1 ATP         0.0644
     20 O2'         0.1373   -0.0577    2.0407 O.3       1 ATP        -0.5595
     21 C1'         1.3733    1.5427    0.6747 C.3       1 ATP         0.3792
     22 N9          0.4520    2.5240    0.1767 N.pl3     1 ATP        -0.5557
     23 C8         -0.2172    2.5216   -0.9668 C.ar      1 ATP         0.2849
     24 N7         -1.0011    3.5855   -1.1321 N.pl3     1 ATP        -0.5117
     25 C5         -0.8184    4.3200   -0.0123 C.ar      1 ATP        -0.2787
     26 C6         -1.3349    5.5079    0.4144 C.ar      1 ATP         0.7736
     27 N6         -2.2567    6.1930   -0.4036 N.pl3     1 ATP        -0.9480
     28 N1         -0.9716    6.0291    1.6069 N.ar      1 ATP        -0.7442
     29 C2         -0.0765    5.3009    2.3312 C.ar      1 ATP         0.7202
     30 N3          0.4933    4.1191    2.0023 N.ar      1 ATP        -0.6957
     31 C4          0.0865    3.6675    0.8123 C.ar      1 ATP         0.6231
     32 HOG3        5.4049    1.8119   -7.1137 H         1 ATP         0.4452
     33 HOB2        0.5205    4.0725   -5.6491 H         1 ATP         0.4969
     34 HOA2        1.9544   -1.7554   -5.4228 H         1 ATP         0.4779
     35 H5'1        1.3494    0.2323   -2.1552 H         1 ATP         0.0280
     36 H5'2        2.1260   -1.3686   -2.0436 H         1 ATP         0.0280
     37 H4'         3.8049   -0.1388   -0.4009 H         1 ATP         0.2049
     38 H3'         1.6783   -1.7629    0.2715 H         1 ATP         0.1077
     39 HO3'        2.2232   -1.2979    2.3953 H         1 ATP         0.4255
     40 H2'        -0.0011    0.0027    0.0003 H         1 ATP         0.0584
     41 HO2'       -0.6141    0.5574    2.1082 H         1 ATP         0.4149
     42 H1'         1.7826    1.9024    1.6451 H         1 ATP         0.1459
     43 H8         -0.1423    1.7373   -1.6999 H         1 ATP         0.2739
     44 HN61       -2.6706    7.0399   -0.0694 H         1 ATP         0.4605
     45 HN62       -2.5527    5.7740   -1.2621 H         1 ATP         0.4605
     46 H2          0.2128    5.7222    3.2871 H         1 ATP         0.0904
     47 H47        -1.5947    3.7835   -1.9255 H         1 ATP         0.5017
@<TRIPOS>BOND
     1    1    2 2
     2    1    3 1
     3    1    4 1
     4    1    8 1
     5    4   32 1
     6    5    6 2
     7    5    7 1
     8    5    8 1
     9    5   12 1
    10    7   33 1
    11    9   10 2
    12    9   11 1
    13    9   12 1
    14    9   13 1
    15   11   34 1
    16   13   14 1
    17   14   15 1
    18   14   35 1
    19   14   36 1
    20   15   16 1
    21   15   17 1
    22   15   37 1
    23   16   21 1
    24   17   18 1
    25   17   19 1
    26   17   38 1
    27   18   39 1
    28   19   20 1
    29   19   21 1
    30   19   40 1
    31   20   41 1
    32   21   22 1
    33   21   42 1
    34   22   23 ar
    35   22   31 ar
    36   23   24 ar
    37   23   43 1
    38   24   25 ar
    39   24   47 1
    40   25   26 ar
    41   25   31 ar
    42   26   27 1
    43   26   28 ar
    44   27   44 1
    45   27   45 1
    46   28   29 ar
    47   29   30 ar
    48   29   46 1
    49   30   31 ar
@<TRIPOS>SUBSTRUCTURE
     1 ATP         1 GROUP 0 A     ****
@<TRIPOS>MOLECULE
[[[5-(6-amino-7,8-dihydropurin-8-ylium-9-yl)-3,4-dihydroxy-tetrahydrofuran-2-yl]methoxy-hydroxy-phosphoryl]oxy-hydroxy-phosphoryl] hydrogen phosphate
   47    49     1     0     0
SMALL
USER_CHARGES

@<TRIPOS>ATOM
      1 PG          2.5393    2.7779   -7.1931 P.3       1 ATP         1.5449
      2 O1G         2.8968    3.2250   -5.7930 O.co2     1 ATP        -0.8177
      3 O2G         1.7558    3.6829   -8.1178 O.co2     1 ATP        -0.8177
      4 O3G         3.9092    2.3181   -7.9531 O.3       1 ATP        -0.7779
      5 PB          0.7497    0.7223   -6.0312 P.3       1 ATP         1.9141
      6 O1B        -0.5331    1.4857   -5.8820 O.2       1 ATP        -0.8754
      7 O2B         0.5749   -0.8179   -6.4904 O.3       1 ATP        -0.8083
      8 O3B         1.7915    1.3327   -7.1045 O.3       1 ATP        -0.8025
      9 PA          3.0863   -0.0757   -4.4171 P.3       1 ATP         1.8015
     10 O1A         4.2268    0.4190   -5.2587 O.2       1 ATP        -0.8201
     11 O2A         2.7768   -1.6555   -4.5790 O.3       1 ATP        -0.8103
     12 O3A         1.6615    0.6308   -4.7014 O.3       1 ATP        -0.8038
     13 O5'         3.2874    0.1332   -2.8242 O.3       1 ATP        -0.5730
     14 C5'         2.2816   -0.2918   -1.9206 C.3       1 ATP         0.1929
     15 C4'         2.7248    0.0226   -0.4980 C.3       1 ATP         0.1044
     16 O4'         2.4697    1.4219   -0.2462 O.3       1 ATP        -0.4079
     17 C3'         1.9404   -0.7419    0.5596 C.3       1 ATP         0.1439
     18 O3'         2.7418   -0.8086    1.7389 O.3       1 ATP        -0.5593
     19 C2'         0.7477    0.1630    0.7858 C.3       1 ATP         0.0644
     20 O2'         0.1373   -0.0577    2.0407 O.3       1 ATP        -0.5595
     21 C1'         1.3733    1.5427    0.6747 C.3       1 ATP         0.3792
     22 N9          0.4520    2.5240    0.1767 N.pl3     1 ATP        -0.5557
     23 C8          0.1928    2.8484   -1.0815 C.ar      1 ATP         0.2849
     24 N7         -0.7248    3.8048   -1.2110 N.pl3     1 ATP        -0.5117
     25 C5         -1.0765    4.1129    0.0571 C.ar      1 ATP        -0.2787
     26 C6         -1.9614    5.0063    0.5851 C.ar      1 ATP         0.7736
     27 N6         -2.7145    5.8254   -0.2810 N.pl3     1 ATP        -0.9480
     28 N1         -2.1199    5.1113    1.9228 N.ar      1 ATP        -0.7442
     29 C2         -1.3522    4.2822    2.6839 C.ar      1 ATP         0.7202
     30 N3         -0.4501    3.3660    2.2638 N.ar      1 ATP        -0.6957
     31 C4         -0.3487    3.3198    0.9322 C.ar      1 ATP         0.6231
     32 HOG3        3.8453    1.9987   -8.8784 H         1 ATP         0.4452
     33 HOB2        1.3756   -1.3724   -6.6063 H         1 ATP         0.4969
     34 HOA2        3.4802   -2.3017   -4.3562 H         1 ATP         0.4779
     35 H5'1        1.3494    0.2323   -2.1552 H         1 ATP         0.0280
     36 H5'2        2.1260   -1.3686   -2.0436 H         1 ATP         0.0280
     37 H4'         3.8049   -0.1388   -0.4009 H         1 ATP         0.2049
     38 H3'         1.6783   -1.7629    0.2715 H         1 ATP         0.1077
     39 HO3'        2.2232   -1.2979    2.3953 H         1 ATP         0.4255
     40 H2'        -0.0011    0.0027    0.0003 H         1 ATP         0.0584
     41 HO2'       -0.1563   -0.9855    2.0596 H         1 ATP         0.4149
     42 H1'         1.7826    1.9024    1.6451 H         1 ATP         0.1459
     43 H8          0.6728    2.3873   -1.9272 H         1 ATP         0.2739
     44 HN61       -2.5537    5.7714   -1.2667 H         1 ATP         0.4605
     45 HN62       -3.3283    6.5126    0.1080 H         1 ATP         0.4605
     46 H2         -1.4818    4.3694    3.7565 H         1 ATP         0.0904
     47 H47        -1.0701    4.2005   -2.0743 H         1 ATP         0.5017
@<TRIPOS>BOND
     1    1    2 2
     2    1    3 1
     3    1    4 1
     4    1    8 1
     5    4   32 1
     6    5    6 2
     7    5    7 1
     8    5    8 1
     9    5   12 1
    10    7   33 1
    11    9   10 2
    12    9   11 1
    13    9   12 1
    14    9   13 1
    15   11   34 1
    16   13   14 1
    17   14   15 1
    18   14   35 1
    19   14   36 1
    20   15   16 1
    21   15   17 1
    22   15   37 1
    23   16   21 1
    24   17   18 1
    25   17   19 1
    26   17   38 1
    27   18   39 1
    28   19   20 1
    29   19   21 1
    30   19   40 1
    31   20   41 1
    32   21   22 1
    33   21   42 1
    34   22   23 ar
    35   22   31 ar
    36   23   24 ar
    37   23   43 1
    38   24   25 ar
    39   24   47 1
    40   25   26 ar
    41   25   31 ar
    42   26   27 1
    43   26   28 ar
    44   27   44 1
    45   27   45 1
    46   28   29 ar
    47   29   30 ar
    48   29   46 1
    49   30   31 ar
@<TRIPOS>SUBSTRUCTURE
     1 ATP         1 GROUP 0 A     ****
@<TRIPOS>MOLECULE
[[[5-(6-amino-7,8-dihydropurin-8-ylium-9-yl)-3,4-dihydroxy-tetrahydrofuran-2-yl]methoxy-hydroxy-phosphoryl]oxy-hydroxy-phosphoryl] hydrogen phosphate
   47    49     1     0     0
SMALL
USER_CHARGES

@<TRIPOS>ATOM
      1 PG          6.4191   -2.9593   -6.0833 P.3       1 ATP         1.5449
      2 O1G         6.2603   -4.3649   -6.6190 O.co2     1 ATP        -0.8177
      3 O2G         7.5098   -2.6292   -5.0886 O.co2     1 ATP        -0.8177
      4 O3G         6.5427   -1.9358   -7.3493 O.3       1 ATP        -0.7779
      5 PB          4.4913   -1.0337   -4.9198 P.3       1 ATP         1.9141
      6 O1B         5.2556   -0.5156   -3.7373 O.2       1 ATP        -0.8754
      7 O2B         4.5147   -0.0719   -6.2191 O.3       1 ATP        -0.8083
      8 O3B         4.9866   -2.4637   -5.4850 O.3       1 ATP        -0.8025
      9 PA          2.1471   -2.2827   -3.6367 P.3       1 ATP         1.8015
     10 O1A         2.4550   -3.7444   -3.7865 O.2       1 ATP        -0.8201
     11 O2A         0.5865   -1.9075   -3.8410 O.3       1 ATP        -0.8103
     12 O3A         2.9198   -1.3056   -4.6653 O.3       1 ATP        -0.8038
     13 O5'         2.5233   -1.6623   -2.1893 O.3       1 ATP        -0.5730
     14 C5'         2.2816   -0.2918   -1.9206 C.3       1 ATP         0.1929
     15 C4'         2.7248    0.0226   -0.4980 C.3       1 ATP         0.1044
     16 O4'         2.4697    1.4219   -0.2462 O.3       1 ATP        -0.4079
     17 C3'         1.9404   -0.7419    0.5596 C.3       1 ATP         0.1439
     18 O3'         2.7418   -0.8086    1.7389 O.3       1 ATP        -0.5593
     19 C2'         0.7477    0.1630    0.7858 C.3       1 ATP         0.0644
     20 O2'         0.1373   -0.0577    2.0407 O.3       1 ATP        -0.5595
     21 C1'         1.3733    1.5427    0.6747 C.3       1 ATP         0.3792
     22 N9          0.4520    2.5240    0.1767 N.pl3     1 ATP        -0.5557
     23 C8         -0.2172    2.5216   -0.9668 C.ar      1 ATP         0.2849
     24 N7         -1.0011    3.5855   -1.1321 N.pl3     1 ATP        -0.5117
     25 C5         -0.8184    4.3200   -0.0123 C.ar      1 ATP        -0.2787
     26 C6         -1.3349    5.5079    0.4144 C.ar      1 ATP         0.7736
     27 N6         -2.2567    6.1930   -0.4036 N.pl3     1 ATP        -0.9480
     28 N1         -0.9716    6.0291    1.6069 N.ar      1 ATP        -0.7442
     29 C2         -0.0765    5.3009    2.3312 C.ar      1 ATP         0.7202
     30 N3          0.4933    4.1191    2.0023 N.ar      1 ATP        -0.6957
     31 C4          0.0865    3.6675    0.8123 C.ar      1 ATP         0.6231
     32 HOG3        6.6518   -0.9782   -7.1667 H         1 ATP         0.4452
     33 HOB2        4.0339   -0.3530   -7.0264 H         1 ATP         0.4969
     34 HOA2       -0.0800   -2.3109   -3.2451 H         1 ATP         0.4779
     35 H5'1        2.8428    0.3149   -2.6387 H         1 ATP         0.0280
     36 H5'2        1.2124   -0.0897   -2.0417 H         1 ATP         0.0280
     37 H4'         3.8049   -0.1388   -0.4009 H         1 ATP         0.2049
     38 H3'         1.6783   -1.7629    0.2715 H         1 ATP         0.1077
     39 HO3'        2.2232   -1.2979    2.3953 H         1 ATP         0.4255
     40 H2'        -0.0011    0.0027    0.0003 H         1 ATP         0.0584
     41 HO2'       -0.1563   -0.9855    2.0596 H         1 ATP         0.4149
     42 H1'         1.7826    1.9024    1.6451 H         1 ATP         0.1459
     43 H8         -0.1423    1.7373   -1.6999 H         1 ATP         0.2739
     44 HN61       -2.4811    5.8206   -1.3042 H         1 ATP         0.4605
     45 HN62       -2.5986    7.0863   -0.1113 H         1 ATP         0.4605
     46 H2          0.2128    5.7222    3.2871 H         1 ATP         0.0904
     47 H47        -1.5947    3.7835   -1.9255 H         1 ATP         0.5017
@<TRIPOS>BOND
     1    1    2 2
     2    1    3 1
     3    1    4 1
     4    1    8 1
     5    4   32 1
     6    5    6 2
     7    5    7 1
     8    5    8 1
     9    5   12 1
    10    7   33 1
    11    9   10 2
    12    9   11 1
    13    9   12 1
    14    9   13 1
    15   11   34 1
    16   13   14 1
    17   14   15 1
    18   14   35 1
    19   14   36 1
    20   15   16 1
    21   15   17 1
    22   15   37 1
    23   16   21 1
    24   17   18 1
    25   17   19 1
    26   17   38 1
    27   18   39 1
    28   19   20 1
    29   19   21 1
    30   19   40 1
    31   20   41 1
    32   21   22 1
    33   21   42 1
    34   22   23 ar
    35   22   31 ar
    36   23   24 ar
    37   23   43 1
    38   24   25 ar
    39   24   47 1
    40   25   26 ar
    41   25   31 ar
    42   26   27 1
    43   26   28 ar
    44   27   44 1
    45   27   45 1
    46   28   29 ar
    47   29   30 ar
    48   29   46 1
    49   30   31 ar
@<TRIPOS>SUBSTRUCTURE
     1 ATP         1 GROUP 0 A     ****
@<TRIPOS>MOLECULE
[[[5-(6-amino-7,8-dihydropurin-8-ylium-9-yl)-3,4-dihydroxy-tetrahydrofuran-2-yl]methoxy-hydroxy-phosphoryl]oxy-hydroxy-phosphoryl] hydrogen phosphate
   47    49     1     0     0
SMALL
USER_CHARGES

@<TRIPOS>ATOM
      1 PG          2.5602    0.3946   -7.9894 P.3       1 ATP         1.5449
      2 O1G         1.6017    0.6062   -9.1404 O.co2     1 ATP        -0.8177
      3 O2G         3.0093   -0.9970   -7.6026 O.co2     1 ATP        -0.8177
      4 O3G         3.8837    1.3161   -8.2444 O.3       1 ATP        -0.7779
      5 PB          1.1032    0.6058   -5.4183 P.3       1 ATP         1.9141
      6 O1B         0.7492    1.6415   -4.3922 O.2       1 ATP        -0.8754
      7 O2B        -0.1614   -0.1300   -6.1060 O.3       1 ATP        -0.8083
      8 O3B         1.9673    1.1473   -6.6712 O.3       1 ATP        -0.8025
      9 PA          3.4957   -0.6445   -4.2289 P.3       1 ATP         1.8015
     10 O1A         4.5940   -0.0911   -5.0900 O.2       1 ATP        -0.8201
     11 O2A         3.6994   -2.1925   -3.8046 O.3       1 ATP        -0.8103
     12 O3A         2.0205   -0.6125   -4.8867 O.3       1 ATP        -0.8038
     13 O5'         3.2874    0.1332   -2.8242 O.3       1 ATP        -0.5730
     14 C5'         2.2816   -0.2918   -1.9206 C.3       1 ATP         0.1929
     15 C4'         2.7248    0.0226   -0.4980 C.3       1 ATP         0.1044
     16 O4'         2.4697    1.4219   -0.2462 O.3       1 ATP        -0.4079
     17 C3'         1.9404   -0.7419    0.5596 C.3       1 ATP         0.1439
     18 O3'         2.7418   -0.8086    1.7389 O.3       1 ATP        -0.5593
     19 C2'         0.7477    0.1630    0.7858 C.3       1 ATP         0.0644
     20 O2'         0.1373   -0.0577    2.0407 O.3       1 ATP        -0.5595
     21 C1'         1.3733    1.5427    0.6747 C.3       1 ATP         0.3792
     22 N9          0.4520    2.5240    0.1767 N.pl3     1 ATP        -0.5557
     23 C8          0.1928    2.8484   -1.0815 C.ar      1 ATP         0.2849
     24 N7         -0.7248    3.8048   -1.2110 N.pl3     1 ATP        -0.5117
     25 C5         -1.0765    4.1129    0.0571 C.ar      1 ATP        -0.2787
     26 C6         -1.9614    5.0063    0.5851 C.ar      1 ATP         0.7736
     27 N6         -2.7145    5.8254   -0.2810 N.pl3     1 ATP        -0.9480
     28 N1         -2.1199    5.1113    1.9228 N.ar      1 ATP        -0.7442
     29 C2         -1.3522    4.2822    2.6839 C.ar      1 ATP         0.7202
     30 N3         -0.4501    3.3660    2.2638 N.ar      1 ATP        -0.6957
     31 C4         -0.3487    3.3198    0.9322 C.ar      1 ATP         0.6231
     32 HOG3        4.6056    1.2904   -7.5808 H         1 ATP         0.4452
     33 HOB2       -0.8143    0.4105   -6.5995 H         1 ATP         0.4969
     34 HOA2        4.4967   -2.4422   -3.2908 H         1 ATP         0.4779
     35 H5'1        1.3494    0.2323   -2.1552 H         1 ATP         0.0280
     36 H5'2        2.1260   -1.3686   -2.0436 H         1 ATP         0.0280
     37 H4'         3.8049   -0.1388   -0.4009 H         1 ATP         0.2049
     38 H3'         1.6783   -1.7629    0.2715 H         1 ATP         0.1077
     39 HO3'        3.5554   -1.2733    1.4914 H         1 ATP         0.4255
     40 H2'        -0.0011    0.0027    0.0003 H         1 ATP         0.0584
     41 HO2'       -0.6141    0.5574    2.1082 H         1 ATP         0.4149
     42 H1'         1.7826    1.9024    1.6451 H         1 ATP         0.1459
     43 H8          0.6728    2.3873   -1.9272 H         1 ATP         0.2739
     44 HN61       -2.5537    5.7714   -1.2667 H         1 ATP         0.4605
     45 HN62       -3.3283    6.5126    0.1080 H         1 ATP         0.4605
     46 H2         -1.4818    4.3694    3.7565 H         1 ATP         0.0904
     47 H47        -1.0701    4.2005   -2.0743 H         1 ATP         0.5017
@<TRIPOS>BOND
     1    1    2 2
     2    1    3 1
     3    1    4 1
     4    1    8 1
     5    4   32 1
     6    5    6 2
     7    5    7 1
     8    5    8 1
     9    5   12 1
    10    7   33 1
    11    9   10 2
    12    9   11 1
    13    9   12 1
    14    9   13 1
    15   11   34 1
    16   13   14 1
    17   14   15 1
    18   14   35 1
    19   14   36 1
    20   15   16 1
    21   15   17 1
    22   15   37 1
    23   16   21 1
    24   17   18 1
    25   17   19 1
    26   17   38 1
    27   18   39 1
    28   19   20 1
    29   19   21 1
    30   19   40 1
    31   20   41 1
    32   21   22 1
    33   21   42 1
    34   22   23 ar
    35   22   31 ar
    36   23   24 ar
    37   23   43 1
    38   24   25 ar
    39   24   47 1
    40   25   26 ar
    41   25   31 ar
    42   26   27 1
    43   26   28 ar
    44   27   44 1
    45   27   45 1
    46   28   29 ar
    47   29   30 ar
    48   29   46 1
    49   30   31 ar
@<TRIPOS>SUBSTRUCTURE
     1 ATP         1 GROUP 0 A     ****
@<TRIPOS>MOLECULE
[[[5-(6-amino-7,8-dihydropurin-8-ylium-9-yl)-3,4-dihydroxy-tetrahydrofuran-2-yl]methoxy-hydroxy-phosphoryl]oxy-hydroxy-phosphoryl] hydrogen phosphate
   47    49     1     0     0
SMALL
USER_CHARGES

@<TRIPOS>ATOM
      1 PG          3.7032    4.3675   -6.5551 P.3       1 ATP         1.5449
      2 O1G         4.6345    4.0427   -7.7019 O.co2     1 ATP        -0.8177
      3 O2G         4.1407    5.2932   -5.4417 O.co2     1 ATP        -0.8177
      4 O3G         2.2988    4.9251   -7.1734 O.3       1 ATP        -0.7779
      5 PB          2.0581    2.6662   -4.7725 P.3       1 ATP         1.9141
      6 O1B         2.3317    3.2788   -3.4306 O.2       1 ATP        -0.8754
      7 O2B         0.6661    3.1218   -5.4569 O.3       1 ATP        -0.8083
      8 O3B         3.1677    2.9718   -5.9062 O.3       1 ATP        -0.8025
      9 PA          3.0863   -0.0757   -4.4171 P.3       1 ATP         1.8015
     10 O1A         4.3570   -0.0352   -5.2156 O.2       1 ATP        -0.8201
     11 O2A         2.2680   -1.4661   -4.5396 O.3       1 ATP        -0.8103
     12 O3A         1.9950    1.0527   -4.7988 O.3       1 ATP        -0.8038
     13 O5'         3.2874    0.1332   -2.8242 O.3       1 ATP        -0.5730
     14 C5'         2.2816   -0.2918   -1.9206 C.3       1 ATP         0.1929
     15 C4'         2.7248    0.0226   -0.4980 C.3       1 ATP         0.1044
     16 O4'         2.4697    1.4219   -0.2462 O.3       1 ATP        -0.4079
     17 C3'         1.9404   -0.7419    0.5596 C.3       1 ATP         0.1439
     18 O3'         2.7418   -0.8086    1.7389 O.3       1 ATP        -0.5593
     19 C2'         0.7477    0.1630    0.7858 C.3       1 ATP         0.0644
     20 O2'         0.1373   -0.0577    2.0407 O.3       1 ATP        -0.5595
     21 C1'         1.3733    1.5427    0.6747 C.3       1 ATP         0.3792
     22 N9          0.4520    2.5240    0.1767 N.pl3     1 ATP        -0.5557
     23 C8         -0.2172    2.5216   -0.9668 C.ar      1 ATP         0.2849
     24 N7         -1.0011    3.5855   -1.1321 N.pl3     1 ATP        -0.5117
     25 C5         -0.8184    4.3200   -0.0123 C.ar      1 ATP        -0.2787
     26 C6         -1.3349    5.5079    0.4144 C.ar      1 ATP         0.7736
     27 N6         -2.2567    6.1930   -0.4036 N.pl3     1 ATP        -0.9480
     28 N1         -0.9716    6.0291    1.6069 N.ar      1 ATP        -0.7442
     29 C2         -0.0765    5.3009    2.3312 C.ar      1 ATP         0.7202
     30 N3          0.4933    4.1191    2.0023 N.ar      1 ATP        -0.6957
     31 C4          0.0865    3.6675    0.8123 C.ar      1 ATP         0.6231
     32 HOG3        1.5843    5.1818   -6.5522 H         1 ATP         0.4452
     33 HOB2        0.5205    4.0725   -5.6491 H         1 ATP         0.4969
     34 HOA2        1.9544   -1.7554   -5.4228 H         1 ATP         0.4779
     35 H5'1        1.3494    0.2323   -2.1552 H         1 ATP         0.0280
     36 H5'2        2.1260   -1.3686   -2.0436 H         1 ATP         0.0280
     37 H4'         3.8049   -0.1388   -0.4009 H         1 ATP         0.2049
     38 H3'         1.6783   -1.7629    0.2715 H         1 ATP         0.1077
     39 HO3'        2.2232   -1.2979    2.3953 H         1 ATP         0.4255
     40 H2'        -0.0011    0.0027    0.0003 H         1 ATP         0.0584
     41 HO2'       -0.6141    0.5574    2.1082 H         1 ATP         0.4149
     42 H1'         1.7826    1.9024    1.6451 H         1 ATP         0.1459
     43 H8         -0.1423    1.7373   -1.6999 H         1 ATP         0.2739
     44 HN61       -2.6706    7.0399   -0.0694 H         1 ATP         0.4605
     45 HN62       -2.5527    5.7740   -1.2621 H         1 ATP         0.4605
     46 H2          0.2128    5.7222    3.2871 H         1 ATP         0.0904
     47 H47        -1.5947    3.7835   -1.9255 H         1 ATP         0.5017
@<TRIPOS>BOND
     1    1    2 2
     2    1    3 1
     3    1    4 1
     4    1    8 1
     5    4   32 1
     6    5    6 2
     7    5    7 1
     8    5    8 1
     9    5   12 1
    10    7   33 1
    11    9   10 2
    12    9   11 1
    13    9   12 1
    14    9   13 1
    15   11   34 1
    16   13   14 1
    17   14   15 1
    18   14   35 1
    19   14   36 1
    20   15   16 1
    21   15   17 1
    22   15   37 1
    23   16   21 1
    24   17   18 1
    25   17   19 1
    26   17   38 1
    27   18   39 1
    28   19   20 1
    29   19   21 1
    30   19   40 1
    31   20   41 1
    32   21   22 1
    33   21   42 1
    34   22   23 ar
    35   22   31 ar
    36   23   24 ar
    37   23   43 1
    38   24   25 ar
    39   24   47 1
    40   25   26 ar
    41   25   31 ar
    42   26   27 1
    43   26   28 ar
    44   27   44 1
    45   27   45 1
    46   28   29 ar
    47   29   30 ar
    48   29   46 1
    49   30   31 ar
@<TRIPOS>SUBSTRUCTURE
     1 ATP         1 GROUP 0 A     ****
@<TRIPOS>MOLECULE
[[[5-(6-amino-7,8-dihydropurin-8-ylium-9-yl)-3,4-dihydroxy-tetrahydrofuran-2-yl]methoxy-hydroxy-phosphoryl]oxy-hydroxy-phosphoryl] hydrogen phosphate
   47    49     1     0     0
SMALL
USER_CHARGES

@<TRIPOS>ATOM
      1 PG         -2.0324   -1.1744   -6.3936 P.3       1 ATP         1.5449
      2 O1G        -3.2156   -1.4992   -5.5089 O.co2     1 ATP        -0.8177
      3 O2G        -1.8631   -1.8484   -7.7371 O.co2     1 ATP        -0.8177
      4 O3G        -1.9810    0.4427   -6.6129 O.3       1 ATP        -0.7779
      5 PB          0.8617   -1.6483   -5.9723 P.3       1 ATP         1.9141
      6 O1B         1.0766   -2.9184   -6.7415 O.2       1 ATP        -0.8754
      7 O2B         1.2977   -0.3000   -6.7505 O.3       1 ATP        -0.8083
      8 O3B        -0.6652   -1.3647   -5.5275 O.3       1 ATP        -0.8025
      9 PA          1.5750   -2.4636   -3.2285 P.3       1 ATP         1.8015
     10 O1A         1.9420   -3.9067   -3.4205 O.2       1 ATP        -0.8201
     11 O2A         0.0757   -2.2276   -2.6680 O.3       1 ATP        -0.8103
     12 O3A         1.6402   -1.5518   -4.5606 O.3       1 ATP        -0.8038
     13 O5'         2.5233   -1.6623   -2.1893 O.3       1 ATP        -0.5730
     14 C5'         2.2816   -0.2918   -1.9206 C.3       1 ATP         0.1929
     15 C4'         2.7248    0.0226   -0.4980 C.3       1 ATP         0.1044
     16 O4'         2.4697    1.4219   -0.2462 O.3       1 ATP        -0.4079
     17 C3'         1.9404   -0.7419    0.5596 C.3       1 ATP         0.1439
     18 O3'         2.7418   -0.8086    1.7389 O.3       1 ATP        -0.5593
     19 C2'         0.7477    0.1630    0.7858 C.3       1 ATP         0.0644
     20 O2'         0.1373   -0.0577    2.0407 O.3       1 ATP        -0.5595
     21 C1'         1.3733    1.5427    0.6747 C.3       1 ATP         0.3792
     22 N9          0.4520    2.5240    0.1767 N.pl3     1 ATP        -0.5557
     23 C8         -0.2172    2.5216   -0.9668 C.ar      1 ATP         0.2849
     24 N7         -1.0011    3.5855   -1.1321 N.pl3     1 ATP        -0.5117
     25 C5         -0.8184    4.3200   -0.0123 C.ar      1 ATP        -0.2787
     26 C6         -1.3349    5.5079    0.4144 C.ar      1 ATP         0.7736
     27 N6         -2.2567    6.1930   -0.4036 N.pl3     1 ATP        -0.9480
     28 N1         -0.9716    6.0291    1.6069 N.ar      1 ATP        -0.7442
     29 C2         -0.0765    5.3009    2.3312 C.ar      1 ATP         0.7202
     30 N3          0.4933    4.1191    2.0023 N.ar      1 ATP        -0.6957
     31 C4          0.0865    3.6675    0.8123 C.ar      1 ATP         0.6231
     32 HOG3       -1.2642    0.8160   -7.1688 H         1 ATP         0.4452
     33 HOB2        0.8630   -0.0819   -7.6022 H         1 ATP         0.4969
     34 HOA2       -0.1714   -2.6105   -1.7994 H         1 ATP         0.4779
     35 H5'1        2.8428    0.3149   -2.6387 H         1 ATP         0.0280
     36 H5'2        1.2124   -0.0897   -2.0417 H         1 ATP         0.0280
     37 H4'         3.8049   -0.1388   -0.4009 H         1 ATP         0.2049
     38 H3'         1.6783   -1.7629    0.2715 H         1 ATP         0.1077
     39 HO3'        2.2232   -1.2979    2.3953 H         1 ATP         0.4255
     40 H2'        -0.0011    0.0027    0.0003 H         1 ATP         0.0584
     41 HO2'       -0.1563   -0.9855    2.0596 H         1 ATP         0.4149
     42 H1'         1.7826    1.9024    1.6451 H         1 ATP         0.1459
     43 H8         -0.1423    1.7373   -1.6999 H         1 ATP         0.2739
     44 HN61       -2.6706    7.0399   -0.0694 H         1 ATP         0.4605
     45 HN62       -2.5527    5.7740   -1.2621 H         1 ATP         0.4605
     46 H2          0.2128    5.7222    3.2871 H         1 ATP         0.0904
     47 H47        -1.5947    3.7835   -1.9255 H         1 ATP         0.5017
@<TRIPOS>BOND
     1    1    2 2
     2    1    3 1
     3    1    4 1
     4    1    8 1
     5    4   32 1
     6    5    6 2
     7    5    7 1
     8    5    8 1
     9    5   12 1
    10    7   33 1
    11    9   10 2
    12    9   11 1
    13    9   12 1
    14    9   13 1
    15   11   34 1
    16   13   14 1
    17   14   15 1
    18   14   35 1
    19   14   36 1
    20   15   16 1
    21   15   17 1
    22   15   37 1
    23   16   21 1
    24   17   18 1
    25   17   19 1
    26   17   38 1
    27   18   39 1
    28   19   20 1
    29   19   21 1
    30   19   40 1
    31   20   41 1
    32   21   22 1
    33   21   42 1
    34   22   23 ar
    35   22   31 ar
    36   23   24 ar
    37   23   43 1
    38   24   25 ar
    39   24   47 1
    40   25   26 ar
    41   25   31 ar
    42   26   27 1
    43   26   28 ar
    44   27   44 1
    45   27   45 1
    46   28   29 ar
    47   29   30 ar
    48   29   46 1
    49   30   31 ar
@<TRIPOS>SUBSTRUCTURE
     1 ATP         1 GROUP 0 A     ****
@<TRIPOS>MOLECULE
[[[5-(6-amino-7,8-dihydropurin-8-ylium-9-yl)-3,4-dihydroxy-tetrahydrofuran-2-yl]methoxy-hydroxy-phosphoryl]oxy-hydroxy-phosphoryl] hydrogen phosphate
   47    49     1     0     0
SMALL
USER_CHARGES

@<TRIPOS>ATOM
      1 PG          5.9202   -4.2738   -5.1756 P.3       1 ATP         1.5449
      2 O1G         5.1804   -3.3602   -6.1276 O.co2     1 ATP        -0.8177
      3 O2G         5.5348   -5.7307   -5.0451 O.co2     1 ATP        -0.8177
      4 O3G         7.5155   -4.1860   -5.5116 O.3       1 ATP        -0.7779
      5 PB          5.7658   -2.0570   -3.2161 P.3       1 ATP         1.9141
      6 O1B         5.8302   -1.8424   -1.7326 O.2       1 ATP        -0.8754
      7 O2B         6.8877   -1.2630   -4.0672 O.3       1 ATP        -0.8083
      8 O3B         5.9264   -3.5912   -3.6959 O.3       1 ATP        -0.8025
      9 PA          2.8569   -2.1455   -3.6982 P.3       1 ATP         1.8015
     10 O1A         2.6294   -3.6082   -3.9481 O.2       1 ATP        -0.8201
     11 O2A         1.9764   -1.1656   -4.6375 O.3       1 ATP        -0.8103
     12 O3A         4.3739   -1.6354   -3.9184 O.3       1 ATP        -0.8038
     13 O5'         2.5233   -1.6623   -2.1893 O.3       1 ATP        -0.5730
     14 C5'         2.2816   -0.2918   -1.9206 C.3       1 ATP         0.1929
     15 C4'         2.7248    0.0226   -0.4980 C.3       1 ATP         0.1044
     16 O4'         2.4697    1.4219   -0.2462 O.3       1 ATP        -0.4079
     17 C3'         1.9404   -0.7419    0.5596 C.3       1 ATP         0.1439
     18 O3'         2.7418   -0.8086    1.7389 O.3       1 ATP        -0.5593
     19 C2'         0.7477    0.1630    0.7858 C.3       1 ATP         0.0644
     20 O2'         0.1373   -0.0577    2.0407 O.3       1 ATP        -0.5595
     21 C1'         1.3733    1.5427    0.6747 C.3       1 ATP         0.3792
     22 N9          0.4520    2.5240    0.1767 N.pl3     1 ATP        -0.5557
     23 C8          0.1928    2.8484   -1.0815 C.ar      1 ATP         0.2849
     24 N7         -0.7248    3.8048   -1.2110 N.pl3     1 ATP        -0.5117
     25 C5         -1.0765    4.1129    0.0571 C.ar      1 ATP        -0.2787
     26 C6         -1.9614    5.0063    0.5851 C.ar      1 ATP         0.7736
     27 N6         -2.7145    5.8254   -0.2810 N.pl3     1 ATP        -0.9480
     28 N1         -2.1199    5.1113    1.9228 N.ar      1 ATP        -0.7442
     29 C2         -1.3522    4.2822    2.6839 C.ar      1 ATP         0.7202
     30 N3         -0.4501    3.3660    2.2638 N.ar      1 ATP        -0.6957
     31 C4         -0.3487    3.3198    0.9322 C.ar      1 ATP         0.6231
     32 HOG3        8.1359   -4.7254   -4.9765 H         1 ATP         0.4452
     33 HOB2        7.8351   -1.4454   -3.8901 H         1 ATP         0.4969
     34 HOA2        0.9981   -1.2222   -4.5961 H         1 ATP         0.4779
     35 H5'1        2.8428    0.3149   -2.6387 H         1 ATP         0.0280
     36 H5'2        1.2124   -0.0897   -2.0417 H         1 ATP         0.0280
     37 H4'         3.8049   -0.1388   -0.4009 H         1 ATP         0.2049
     38 H3'         1.6783   -1.7629    0.2715 H         1 ATP         0.1077
     39 HO3'        2.2232   -1.2979    2.3953 H         1 ATP         0.4255
     40 H2'        -0.0011    0.0027    0.0003 H         1 ATP         0.0584
     41 HO2'       -0.1563   -0.9855    2.0596 H         1 ATP         0.4149
     42 H1'         1.7826    1.9024    1.6451 H         1 ATP         0.1459
     43 H8          0.6728    2.3873   -1.9272 H         1 ATP         0.2739
     44 HN61       -2.5537    5.7714   -1.2667 H         1 ATP         0.4605
     45 HN62       -3.3283    6.5126    0.1080 H         1 ATP         0.4605
     46 H2         -1.4818    4.3694    3.7565 H         1 ATP         0.0904
     47 H47        -1.0701    4.2005   -2.0743 H         1 ATP         0.5017
@<TRIPOS>BOND
     1    1    2 2
     2    1    3 1
     3    1    4 1
     4    1    8 1
     5    4   32 1
     6    5    6 2
     7    5    7 1
     8    5    8 1
     9    5   12 1
    10    7   33 1
    11    9   10 2
    12    9   11 1
    13    9   12 1
    14    9   13 1
    15   11   34 1
    16   13   14 1
    17   14   15 1
    18   14   35 1
    19   14   36 1
    20   15   16 1
    21   15   17 1
    22   15   37 1
    23   16   21 1
    24   17   18 1
    25   17   19 1
    26   17   38 1
    27   18   39 1
    28   19   20 1
    29   19   21 1
    30   19   40 1
    31   20   41 1
    32   21   22 1
    33   21   42 1
    34   22   23 ar
    35   22   31 ar
    36   23   24 ar
    37   23   43 1
    38   24   25 ar
    39   24   47 1
    40   25   26 ar
    41   25   31 ar
    42   26   27 1
    43   26   28 ar
    44   27   44 1
    45   27   45 1
    46   28   29 ar
    47   29   30 ar
    48   29   46 1
    49   30   31 ar
@<TRIPOS>SUBSTRUCTURE
     1 ATP         1 GROUP 0 A     ****
@<TRIPOS>MOLECULE
[[[5-(6-amino-7,8-dihydropurin-8-ylium-9-yl)-3,4-dihydroxy-tetrahydrofuran-2-yl]methoxy-hydroxy-phosphoryl]oxy-hydroxy-phosphoryl] hydrogen phosphate
   47    49     1     0     0
SMALL
USER_CHARGES

@<TRIPOS>ATOM
      1 PG         -6.2713   -7.0529    1.0049 P.3       1 ATP         1.5449
      2 O1G        -7.4799   -6.4109    1.6494 O.co2     1 ATP        -0.8177
      3 O2G        -6.2215   -8.5463    0.7703 O.co2     1 ATP        -0.8177
      4 O3G        -5.9775   -6.2940   -0.4105 O.3       1 ATP        -0.7779
      5 PB         -4.3704   -5.1446    2.2391 P.3       1 ATP         1.9141
      6 O1B        -4.0725   -4.2268    1.0903 O.2       1 ATP        -0.8754
      7 O2B        -5.4616   -4.5840    3.2920 O.3       1 ATP        -0.8083
      8 O3B        -4.9390   -6.5993    1.8265 O.3       1 ATP        -0.8025
      9 PA         -1.7115   -6.2808    2.8231 P.3       1 ATP         1.8015
     10 O1A        -1.8458   -7.6751    2.2829 O.2       1 ATP        -0.8201
     11 O2A        -0.8701   -6.1798    4.2014 O.3       1 ATP        -0.8103
     12 O3A        -3.1038   -5.5348    3.1621 O.3       1 ATP        -0.8038
     13 O5'        -0.9730   -5.2421    1.8245 O.3       1 ATP        -0.5730
     14 C5'        -0.7840   -3.8935    2.2172 C.3       1 ATP         0.1929
     15 C4'        -0.0724   -3.1466    1.1027 C.3       1 ATP         0.1044
     16 O4'        -0.8674   -3.1929   -0.0945 O.3       1 ATP        -0.4079
     17 C3'         0.1338   -1.6715    1.4027 C.3       1 ATP         0.1439
     18 O3'         1.2893   -1.4445    2.1808 O.3       1 ATP        -0.5593
     19 C2'         0.2158   -1.0724    0.0128 C.3       1 ATP         0.0644
     20 O2'         1.5141   -1.2448   -0.5513 O.3       1 ATP        -0.5595
     21 C1'        -0.7897   -1.9176   -0.7583 C.3       1 ATP         0.3792
     22 N9         -2.1040   -1.3333   -0.7704 N.pl3     1 ATP        -0.5557
     23 C8         -3.0822   -1.4850    0.1102 C.ar      1 ATP         0.2849
     24 N7         -4.1844   -0.7999   -0.1888 N.pl3     1 ATP        -0.5117
     25 C5         -3.8875   -0.1651   -1.3445 C.ar      1 ATP        -0.2787
     26 C6         -4.5941    0.6799   -2.1486 C.ar      1 ATP         0.7736
     27 N6         -5.9138    1.0274   -1.7939 N.pl3     1 ATP        -0.9480
     28 N1         -4.0421    1.1824   -3.2748 N.ar      1 ATP        -0.7442
     29 C2         -2.7637    0.7937   -3.5405 C.ar      1 ATP         0.7202
     30 N3         -1.9788   -0.0343   -2.8140 N.ar      1 ATP        -0.6957
     31 C4         -2.5915   -0.4902   -1.7174 C.ar      1 ATP         0.6231
     32 HOG3       -5.2187   -6.5962   -0.9538 H         1 ATP         0.4452
     33 HOB2       -6.3663   -4.3785    2.9738 H         1 ATP         0.4969
     34 HOA2        0.0621   -6.4850    4.2112 H         1 ATP         0.4779
     35 H5'1       -1.7611   -3.4417    2.4168 H         1 ATP         0.0280
     36 H5'2       -0.1868   -3.8713    3.1345 H         1 ATP         0.0280
     37 H4'         0.8886   -3.6448    0.8780 H         1 ATP         0.2049
     38 H3'        -0.7373   -1.2358    1.9870 H         1 ATP         0.1077
     39 HO3'        1.3408   -0.4870    2.3219 H         1 ATP         0.4255
     40 H2'        -0.0384   -0.0310    0.0096 H         1 ATP         0.0584
     41 HO2'        2.1463   -0.7958    0.0370 H         1 ATP         0.4149
     42 H1'        -0.4769   -2.1002   -1.8093 H         1 ATP         0.1459
     43 H8         -3.0031   -2.1011    0.9891 H         1 ATP         0.2739
     44 HN61       -6.3271    0.6117   -0.9836 H         1 ATP         0.4605
     45 HN62       -6.4471    1.6092   -2.4083 H         1 ATP         0.4605
     46 H2         -2.3243    1.1986   -4.4449 H         1 ATP         0.0904
     47 H47        -5.0436   -0.7722    0.3425 H         1 ATP         0.5017
@<TRIPOS>BOND
     1    1    2 2
     2    1    3 1
     3    1    4 1
     4    1    8 1
     5    4   32 1
     6    5    6 2
     7    5    7 1
     8    5    8 1
     9    5   12 1
    10    7   33 1
    11    9   10 2
    12    9   11 1
    13    9   12 1
    14    9   13 1
    15   11   34 1
    16   13   14 1
    17   14   15 1
    18   14   35 1
    19   14   36 1
    20   15   16 1
    21   15   17 1
    22   15   37 1
    23   16   21 1
    24   17   18 1
    25   17   19 1
    26   17   38 1
    27   18   39 1
    28   19   20 1
    29   19   21 1
    30   19   40 1
    31   20   41 1
    32   21   22 1
    33   21   42 1
    34   22   23 ar
    35   22   31 ar
    36   23   24 ar
    37   23   43 1
    38   24   25 ar
    39   24   47 1
    40   25   26 ar
    41   25   31 ar
    42   26   27 1
    43   26   28 ar
    44   27   44 1
    45   27   45 1
    46   28   29 ar
    47   29   30 ar
    48   29   46 1
    49   30   31 ar
@<TRIPOS>SUBSTRUCTURE
     1 ATP         1 GROUP 0 A     ****
@<TRIPOS>MOLECULE
[[[5-(6-amino-7,8-dihydropurin-8-ylium-9-yl)-3,4-dihydroxy-tetrahydrofuran-2-yl]methoxy-hydroxy-phosphoryl]oxy-hydroxy-phosphoryl] hydrogen phosphate
   47    49     1     0     0
SMALL
USER_CHARGES

@<TRIPOS>ATOM
      1 PG         -0.8405   -0.3301   -7.4519 P.3       1 ATP         1.5449
      2 O1G        -1.8788    0.7697   -7.4671 O.co2     1 ATP        -0.8177
      3 O2G        -1.2456   -1.7737   -7.2522 O.co2     1 ATP        -0.8177
      4 O3G         0.0446   -0.2228   -8.8196 O.3       1 ATP        -0.7779
      5 PB          1.2171    1.3780   -6.1762 P.3       1 ATP         1.9141
      6 O1B         2.0923    1.7232   -7.3449 O.2       1 ATP        -0.8754
      7 O2B         0.1533    2.5226   -5.7618 O.3       1 ATP        -0.8083
      8 O3B         0.3108    0.0539   -6.3643 O.3       1 ATP        -0.8025
      9 PA          3.0863   -0.0757   -4.4171 P.3       1 ATP         1.8015
     10 O1A         4.3570   -0.0352   -5.2156 O.2       1 ATP        -0.8201
     11 O2A         2.2680   -1.4661   -4.5396 O.3       1 ATP        -0.8103
     12 O3A         1.9950    1.0527   -4.7988 O.3       1 ATP        -0.8038
     13 O5'         3.2874    0.1332   -2.8242 O.3       1 ATP        -0.5730
     14 C5'         2.2816   -0.2918   -1.9206 C.3       1 ATP         0.1929
     15 C4'         2.7248    0.0226   -0.4980 C.3       1 ATP         0.1044
     16 O4'         2.4697    1.4219   -0.2462 O.3       1 ATP        -0.4079
     17 C3'         1.9404   -0.7419    0.5596 C.3       1 ATP         0.1439
     18 O3'         2.7418   -0.8086    1.7389 O.3       1 ATP        -0.5593
     19 C2'         0.7477    0.1630    0.7858 C.3       1 ATP         0.0644
     20 O2'         0.1373   -0.0577    2.0407 O.3       1 ATP        -0.5595
     21 C1'         1.3733    1.5427    0.6747 C.3       1 ATP         0.3792
     22 N9          0.4520    2.5240    0.1767 N.pl3     1 ATP        -0.5557
     23 C8          0.5305    3.2394   -0.9358 C.ar      1 ATP         0.2849
     24 N7         -0.4966    4.0680   -1.1145 N.pl3     1 ATP        -0.5117
     25 C5         -1.2879    3.8664   -0.0375 C.ar      1 ATP        -0.2787
     26 C6         -2.4754    4.4084    0.3577 C.ar      1 ATP         0.7736
     27 N6         -3.0892    5.3882   -0.4495 N.pl3     1 ATP        -0.9480
     28 N1         -3.0632    4.0158    1.5092 N.ar      1 ATP        -0.7442
     29 C2         -2.4008    3.0654    2.2262 C.ar      1 ATP         0.7202
     30 N3         -1.2259    2.4663    1.9260 N.ar      1 ATP        -0.6957
     31 C4         -0.7062    2.9047    0.7757 C.ar      1 ATP         0.6231
     32 HOG3        0.7662   -0.8720   -8.9611 H         1 ATP         0.4452
     33 HOB2       -0.5142    2.8110   -6.4202 H         1 ATP         0.4969
     34 HOA2        1.9544   -1.7554   -5.4228 H         1 ATP         0.4779
     35 H5'1        1.3494    0.2323   -2.1552 H         1 ATP         0.0280
     36 H5'2        2.1260   -1.3686   -2.0436 H         1 ATP         0.0280
     37 H4'         3.8049   -0.1388   -0.4009 H         1 ATP         0.2049
     38 H3'         1.6783   -1.7629    0.2715 H         1 ATP         0.1077
     39 HO3'        2.2232   -1.2979    2.3953 H         1 ATP         0.4255
     40 H2'        -0.0011    0.0027    0.0003 H         1 ATP         0.0584
     41 HO2'       -0.1563   -0.9855    2.0596 H         1 ATP         0.4149
     42 H1'         1.7826    1.9024    1.6451 H         1 ATP         0.1459
     43 H8          1.3437    3.1645   -1.6367 H         1 ATP         0.2739
     44 HN61       -2.6210    5.7042   -1.2748 H         1 ATP         0.4605
     45 HN62       -3.9356    5.8187   -0.1356 H         1 ATP         0.4605
     46 H2         -2.8752    2.7532    3.1495 H         1 ATP         0.0904
     47 H47        -0.6372    4.7004   -1.8900 H         1 ATP         0.5017
@<TRIPOS>BOND
     1    1    2 2
     2    1    3 1
     3    1    4 1
     4    1    8 1
     5    4   32 1
     6    5    6 2
     7    5    7 1
     8    5    8 1
     9    5   12 1
    10    7   33 1
    11    9   10 2
    12    9   11 1
    13    9   12 1
    14    9   13 1
    15   11   34 1
    16   13   14 1
    17   14   15 1
    18   14   35 1
    19   14   36 1
    20   15   16 1
    21   15   17 1
    22   15   37 1
    23   16   21 1
    24   17   18 1
    25   17   19 1
    26   17   38 1
    27   18   39 1
    28   19   20 1
    29   19   21 1
    30   19   40 1
    31   20   41 1
    32   21   22 1
    33   21   42 1
    34   22   23 ar
    35   22   31 ar
    36   23   24 ar
    37   23   43 1
    38   24   25 ar
    39   24   47 1
    40   25   26 ar
    41   25   31 ar
    42   26   27 1
    43   26   28 ar
    44   27   44 1
    45   27   45 1
    46   28   29 ar
    47   29   30 ar
    48   29   46 1
    49   30   31 ar
@<TRIPOS>SUBSTRUCTURE
     1 ATP         1 GROUP 0 A     ****
@<TRIPOS>MOLECULE
[[[5-(6-amino-7,8-dihydropurin-8-ylium-9-yl)-3,4-dihydroxy-tetrahydrofuran-2-yl]methoxy-hydroxy-phosphoryl]oxy-hydroxy-phosphoryl] hydrogen phosphate
   47    49     1     0     0
SMALL
USER_CHARGES

@<TRIPOS>ATOM
      1 PG         -2.8387   -0.7210    7.4398 P.3       1 ATP         1.5449
      2 O1G        -2.2807    0.5352    6.8085 O.co2     1 ATP        -0.8177
      3 O2G        -2.3565   -1.1850    8.7963 O.co2     1 ATP        -0.8177
      4 O3G        -4.4663   -0.5986    7.4803 O.3       1 ATP        -0.7779
      5 PB         -1.4016   -2.7029    5.7709 P.3       1 ATP         1.9141
      6 O1B        -0.4486   -1.8271    5.0123 O.2       1 ATP        -0.8754
      7 O2B        -0.7600   -3.4608    7.0467 O.3       1 ATP        -0.8083
      8 O3B        -2.6949   -1.9477    6.3766 O.3       1 ATP        -0.8025
      9 PA         -3.0227   -3.8710    3.6008 P.3       1 ATP         1.8015
     10 O1A        -4.3193   -3.1291    3.7499 O.2       1 ATP        -0.8201
     11 O2A        -3.1911   -5.4342    3.2190 O.3       1 ATP        -0.8103
     12 O3A        -2.0836   -3.8907    4.9152 O.3       1 ATP        -0.8038
     13 O5'        -2.0397   -3.2817    2.4571 O.3       1 ATP        -0.5730
     14 C5'        -0.7840   -3.8935    2.2172 C.3       1 ATP         0.1929
     15 C4'        -0.0724   -3.1466    1.1027 C.3       1 ATP         0.1044
     16 O4'        -0.8674   -3.1929   -0.0945 O.3       1 ATP        -0.4079
     17 C3'         0.1338   -1.6715    1.4027 C.3       1 ATP         0.1439
     18 O3'         1.2893   -1.4445    2.1808 O.3       1 ATP        -0.5593
     19 C2'         0.2158   -1.0724    0.0128 C.3       1 ATP         0.0644
     20 O2'         1.5141   -1.2448   -0.5513 O.3       1 ATP        -0.5595
     21 C1'        -0.7897   -1.9176   -0.7583 C.3       1 ATP         0.3792
     22 N9         -2.1040   -1.3333   -0.7704 N.pl3     1 ATP        -0.5557
     23 C8         -3.2304   -1.8262   -0.2767 C.ar      1 ATP         0.2849
     24 N7         -4.2847   -1.0309   -0.4481 N.pl3     1 ATP        -0.5117
     25 C5         -3.7951    0.0479   -1.0985 C.ar      1 ATP        -0.2787
     26 C6         -4.3691    1.1983   -1.5536 C.ar      1 ATP         0.7736
     27 N6         -5.7501    1.4047   -1.3573 N.pl3     1 ATP        -0.9480
     28 N1         -3.6289    2.1345   -2.1869 N.ar      1 ATP        -0.7442
     29 C2         -2.3041    1.8525   -2.3333 C.ar      1 ATP         0.7202
     30 N3         -1.6387    0.7492   -1.9218 N.ar      1 ATP        -0.6957
     31 C4         -2.4348   -0.1293   -1.3053 C.ar      1 ATP         0.6231
     32 HOG3       -4.9810   -1.3402    7.8642 H         1 ATP         0.4452
     33 HOB2       -0.3754   -2.9253    7.7729 H         1 ATP         0.4969
     34 HOA2       -3.6506   -5.6718    2.3856 H         1 ATP         0.4779
     35 H5'1       -0.1920   -3.8613    3.1376 H         1 ATP         0.0280
     36 H5'2       -0.9467   -4.9385    1.9342 H         1 ATP         0.0280
     37 H4'         0.8886   -3.6448    0.8780 H         1 ATP         0.2049
     38 H3'        -0.7373   -1.2358    1.9870 H         1 ATP         0.1077
     39 HO3'        1.3408   -0.4870    2.3219 H         1 ATP         0.4255
     40 H2'        -0.0384   -0.0310    0.0096 H         1 ATP         0.0584
     41 HO2'        2.1463   -0.7958    0.0370 H         1 ATP         0.4149
     42 H1'        -0.4769   -2.1002   -1.8093 H         1 ATP         0.1459
     43 H8         -3.2974   -2.7789    0.2194 H         1 ATP         0.2739
     44 HN61       -6.2956    0.6838   -0.9296 H         1 ATP         0.4605
     45 HN62       -6.1788    2.2266   -1.7327 H         1 ATP         0.4605
     46 H2         -1.7135    2.6057   -2.8421 H         1 ATP         0.0904
     47 H47        -5.2337   -1.2102   -0.1507 H         1 ATP         0.5017
@<TRIPOS>BOND
     1    1    2 2
     2    1    3 1
     3    1    4 1
     4    1    8 1
     5    4   32 1
     6    5    6 2
     7    5    7 1
     8    5    8 1
     9    5   12 1
    10    7   33 1
    11    9   10 2
    12    9   11 1
    13    9   12 1
    14    9   13 1
    15   11   34 1
    16   13   14 1
    17   14   15 1
    18   14   35 1
    19   14   36 1
    20   15   16 1
    21   15   17 1
    22   15   37 1
    23   16   21 1
    24   17   18 1
    25   17   19 1
    26   17   38 1
    27   18   39 1
    28   19   20 1
    29   19   21 1
    30   19   40 1
    31   20   41 1
    32   21   22 1
    33   21   42 1
    34   22   23 ar
    35   22   31 ar
    36   23   24 ar
    37   23   43 1
    38   24   25 ar
    39   24   47 1
    40   25   26 ar
    41   25   31 ar
    42   26   27 1
    43   26   28 ar
    44   27   44 1
    45   27   45 1
    46   28   29 ar
    47   29   30 ar
    48   29   46 1
    49   30   31 ar
@<TRIPOS>SUBSTRUCTURE
     1 ATP         1 GROUP 0 A     ****
@<TRIPOS>MOLECULE
[[[5-(6-amino-7,8-dihydropurin-8-ylium-9-yl)-3,4-dihydroxy-tetrahydrofuran-2-yl]methoxy-hydroxy-phosphoryl]oxy-hydroxy-phosphoryl] hydrogen phosphate
   47    49     1     0     0
SMALL
USER_CHARGES

@<TRIPOS>ATOM
      1 PG         -0.7812    3.0219   -4.7330 P.3       1 ATP         1.5449
      2 O1G        -0.5567    2.1724   -3.5017 O.co2     1 ATP        -0.8177
      3 O2G        -2.1043    2.9884   -5.4651 O.co2     1 ATP        -0.8177
      4 O3G        -0.4320    4.5726   -4.3603 O.3       1 ATP        -0.7779
      5 PB          1.2171    1.3780   -6.1762 P.3       1 ATP         1.9141
      6 O1B         0.3648    0.2662   -6.7133 O.2       1 ATP        -0.8754
      7 O2B         2.3852    1.8820   -7.1737 O.3       1 ATP        -0.8083
      8 O3B         0.4208    2.7307   -5.7942 O.3       1 ATP        -0.8025
      9 PA          3.0863   -0.0757   -4.4171 P.3       1 ATP         1.8015
     10 O1A         4.3570   -0.0352   -5.2156 O.2       1 ATP        -0.8201
     11 O2A         2.2680   -1.4661   -4.5396 O.3       1 ATP        -0.8103
     12 O3A         1.9950    1.0527   -4.7988 O.3       1 ATP        -0.8038
     13 O5'         3.2874    0.1332   -2.8242 O.3       1 ATP        -0.5730
     14 C5'         2.2816   -0.2918   -1.9206 C.3       1 ATP         0.1929
     15 C4'         2.7248    0.0226   -0.4980 C.3       1 ATP         0.1044
     16 O4'         2.4697    1.4219   -0.2462 O.3       1 ATP        -0.4079
     17 C3'         1.9404   -0.7419    0.5596 C.3       1 ATP         0.1439
     18 O3'         2.7418   -0.8086    1.7389 O.3       1 ATP        -0.5593
     19 C2'         0.7477    0.1630    0.7858 C.3       1 ATP         0.0644
     20 O2'         0.1373   -0.0577    2.0407 O.3       1 ATP        -0.5595
     21 C1'         1.3733    1.5427    0.6747 C.3       1 ATP         0.3792
     22 N9          0.4520    2.5240    0.1767 N.pl3     1 ATP        -0.5557
     23 C8          0.5305    3.2394   -0.9358 C.ar      1 ATP         0.2849
     24 N7         -0.4966    4.0680   -1.1145 N.pl3     1 ATP        -0.5117
     25 C5         -1.2879    3.8664   -0.0375 C.ar      1 ATP        -0.2787
     26 C6         -2.4754    4.4084    0.3577 C.ar      1 ATP         0.7736
     27 N6         -3.0892    5.3882   -0.4495 N.pl3     1 ATP        -0.9480
     28 N1         -3.0632    4.0158    1.5092 N.ar      1 ATP        -0.7442
     29 C2         -2.4008    3.0654    2.2262 C.ar      1 ATP         0.7202
     30 N3         -1.2259    2.4663    1.9260 N.ar      1 ATP        -0.6957
     31 C4         -0.7062    2.9047    0.7757 C.ar      1 ATP         0.6231
     32 HOG3       -0.5285    5.2540   -5.0593 H         1 ATP         0.4452
     33 HOB2        3.0693    1.2423   -7.4650 H         1 ATP         0.4969
     34 HOA2        1.9544   -1.7554   -5.4228 H         1 ATP         0.4779
     35 H5'1        1.3494    0.2323   -2.1552 H         1 ATP         0.0280
     36 H5'2        2.1260   -1.3686   -2.0436 H         1 ATP         0.0280
     37 H4'         3.8049   -0.1388   -0.4009 H         1 ATP         0.2049
     38 H3'         1.6783   -1.7629    0.2715 H         1 ATP         0.1077
     39 HO3'        2.2232   -1.2979    2.3953 H         1 ATP         0.4255
     40 H2'        -0.0011    0.0027    0.0003 H         1 ATP         0.0584
     41 HO2'       -0.1563   -0.9855    2.0596 H         1 ATP         0.4149
     42 H1'         1.7826    1.9024    1.6451 H         1 ATP         0.1459
     43 H8          1.3437    3.1645   -1.6367 H         1 ATP         0.2739
     44 HN61       -3.9824    5.7507   -0.1831 H         1 ATP         0.4605
     45 HN62       -2.6676    5.6358   -1.3220 H         1 ATP         0.4605
     46 H2         -2.8752    2.7532    3.1495 H         1 ATP         0.0904
     47 H47        -0.6372    4.7004   -1.8900 H         1 ATP         0.5017
@<TRIPOS>BOND
     1    1    2 2
     2    1    3 1
     3    1    4 1
     4    1    8 1
     5    4   32 1
     6    5    6 2
     7    5    7 1
     8    5    8 1
     9    5   12 1
    10    7   33 1
    11    9   10 2
    12    9   11 1
    13    9   12 1
    14    9   13 1
    15   11   34 1
    16   13   14 1
    17   14   15 1
    18   14   35 1
    19   14   36 1
    20   15   16 1
    21   15   17 1
    22   15   37 1
    23   16   21 1
    24   17   18 1
    25   17   19 1
    26   17   38 1
    27   18   39 1
    28   19   20 1
    29   19   21 1
    30   19   40 1
    31   20   41 1
    32   21   22 1
    33   21   42 1
    34   22   23 ar
    35   22   31 ar
    36   23   24 ar
    37   23   43 1
    38   24   25 ar
    39   24   47 1
    40   25   26 ar
    41   25   31 ar
    42   26   27 1
    43   26   28 ar
    44   27   44 1
    45   27   45 1
    46   28   29 ar
    47   29   30 ar
    48   29   46 1
    49   30   31 ar
@<TRIPOS>SUBSTRUCTURE
     1 ATP         1 GROUP 0 A     ****
@<TRIPOS>MOLECULE
[[[5-(6-amino-7,8-dihydropurin-8-ylium-9-yl)-3,4-dihydroxy-tetrahydrofuran-2-yl]methoxy-hydroxy-phosphoryl]oxy-hydroxy-phosphoryl] hydrogen phosphate
   47    49     1     0     0
SMALL
USER_CHARGES

@<TRIPOS>ATOM
      1 PG         -4.3195   -8.8523    2.7554 P.3       1 ATP         1.5449
      2 O1G        -3.9341   -8.4067    4.1486 O.co2     1 ATP        -0.8177
      3 O2G        -3.7691  -10.1355    2.1736 O.co2     1 ATP        -0.8177
      4 O3G        -5.9488   -8.8947    2.6597 O.3       1 ATP        -0.7779
      5 PB         -3.9091   -6.0343    1.9374 P.3       1 ATP         1.9141
      6 O1B        -3.6258   -5.2387    0.6974 O.2       1 ATP        -0.8754
      7 O2B        -5.2808   -5.6426    2.6981 O.3       1 ATP        -0.8083
      8 O3B        -4.0281   -7.6303    1.7173 O.3       1 ATP        -0.8025
      9 PA         -1.2163   -6.3334    3.1041 P.3       1 ATP         1.8015
     10 O1A        -0.9116   -7.7743    2.8129 O.2       1 ATP        -0.8201
     11 O2A        -0.6988   -5.8232    4.5497 O.3       1 ATP        -0.8103
     12 O3A        -2.7840   -5.9434    3.0925 O.3       1 ATP        -0.8038
     13 O5'        -0.5702   -5.2849    2.0530 O.3       1 ATP        -0.5730
     14 C5'        -0.7840   -3.8935    2.2172 C.3       1 ATP         0.1929
     15 C4'        -0.0724   -3.1466    1.1027 C.3       1 ATP         0.1044
     16 O4'        -0.8674   -3.1929   -0.0945 O.3       1 ATP        -0.4079
     17 C3'         0.1338   -1.6715    1.4027 C.3       1 ATP         0.1439
     18 O3'         1.2893   -1.4445    2.1808 O.3       1 ATP        -0.5593
     19 C2'         0.2158   -1.0724    0.0128 C.3       1 ATP         0.0644
     20 O2'         1.5141   -1.2448   -0.5513 O.3       1 ATP        -0.5595
     21 C1'        -0.7897   -1.9176   -0.7583 C.3       1 ATP         0.3792
     22 N9         -2.1040   -1.3333   -0.7704 N.pl3     1 ATP        -0.5557
     23 C8         -3.0822   -1.4850    0.1102 C.ar      1 ATP         0.2849
     24 N7         -4.1844   -0.7999   -0.1888 N.pl3     1 ATP        -0.5117
     25 C5         -3.8875   -0.1651   -1.3445 C.ar      1 ATP        -0.2787
     26 C6         -4.5941    0.6799   -2.1486 C.ar      1 ATP         0.7736
     27 N6         -5.9138    1.0274   -1.7939 N.pl3     1 ATP        -0.9480
     28 N1         -4.0421    1.1824   -3.2748 N.ar      1 ATP        -0.7442
     29 C2         -2.7637    0.7937   -3.5405 C.ar      1 ATP         0.7202
     30 N3         -1.9788   -0.0343   -2.8140 N.ar      1 ATP        -0.6957
     31 C4         -2.5915   -0.4902   -1.7174 C.ar      1 ATP         0.6231
     32 HOG3       -6.3599   -9.1672    1.8118 H         1 ATP         0.4452
     33 HOB2       -6.1315   -5.7303    2.2178 H         1 ATP         0.4969
     34 HOA2       -1.0393   -6.2633    5.3575 H         1 ATP         0.4779
     35 H5'1       -1.8600   -3.6936    2.1849 H         1 ATP         0.0280
     36 H5'2       -0.3935   -3.5871    3.1930 H         1 ATP         0.0280
     37 H4'         0.8886   -3.6448    0.8780 H         1 ATP         0.2049
     38 H3'        -0.7373   -1.2358    1.9870 H         1 ATP         0.1077
     39 HO3'        1.1626   -1.9325    3.0084 H         1 ATP         0.4255
     40 H2'        -0.0384   -0.0310    0.0096 H         1 ATP         0.0584
     41 HO2'        2.1463   -0.7958    0.0370 H         1 ATP         0.4149
     42 H1'        -0.4769   -2.1002   -1.8093 H         1 ATP         0.1459
     43 H8         -3.0031   -2.1011    0.9891 H         1 ATP         0.2739
     44 HN61       -6.3271    0.6117   -0.9836 H         1 ATP         0.4605
     45 HN62       -6.4471    1.6092   -2.4083 H         1 ATP         0.4605
     46 H2         -2.3243    1.1986   -4.4449 H         1 ATP         0.0904
     47 H47        -5.0436   -0.7722    0.3425 H         1 ATP         0.5017
@<TRIPOS>BOND
     1    1    2 2
     2    1    3 1
     3    1    4 1
     4    1    8 1
     5    4   32 1
     6    5    6 2
     7    5    7 1
     8    5    8 1
     9    5   12 1
    10    7   33 1
    11    9   10 2
    12    9   11 1
    13    9   12 1
    14    9   13 1
    15   11   34 1
    16   13   14 1
    17   14   15 1
    18   14   35 1
    19   14   36 1
    20   15   16 1
    21   15   17 1
    22   15   37 1
    23   16   21 1
    24   17   18 1
    25   17   19 1
    26   17   38 1
    27   18   39 1
    28   19   20 1
    29   19   21 1
    30   19   40 1
    31   20   41 1
    32   21   22 1
    33   21   42 1
    34   22   23 ar
    35   22   31 ar
    36   23   24 ar
    37   23   43 1
    38   24   25 ar
    39   24   47 1
    40   25   26 ar
    41   25   31 ar
    42   26   27 1
    43   26   28 ar
    44   27   44 1
    45   27   45 1
    46   28   29 ar
    47   29   30 ar
    48   29   46 1
    49   30   31 ar
@<TRIPOS>SUBSTRUCTURE
     1 ATP         1 GROUP 0 A     ****
@<TRIPOS>MOLECULE
[[[5-(6-amino-7,8-dihydropurin-8-ylium-9-yl)-3,4-dihydroxy-tetrahydrofuran-2-yl]methoxy-hydroxy-phosphoryl]oxy-hydroxy-phosphoryl] hydrogen phosphate
   47    49     1     0     0
SMALL
USER_CHARGES

@<TRIPOS>ATOM
      1 PG         -1.3423   -0.5138   -4.6975 P.3       1 ATP         1.5449
      2 O1G        -0.6757   -0.7091   -3.3538 O.co2     1 ATP        -0.8177
      3 O2G        -1.2483   -1.5768   -5.7695 O.co2     1 ATP        -0.8177
      4 O3G        -2.9177   -0.1667   -4.4461 O.3       1 ATP        -0.7779
      5 PB         -0.2715    2.2477   -4.6233 P.3       1 ATP         1.9141
      6 O1B         0.0631    3.3646   -5.5675 O.2       1 ATP        -0.8754
      7 O2B        -1.3729    2.6152   -3.4984 O.3       1 ATP        -0.8083
      8 O3B        -0.8561    0.9121   -5.3190 O.3       1 ATP        -0.8025
      9 PA          2.3569    0.9674   -4.2305 P.3       1 ATP         1.8015
     10 O1A         3.2462    1.8166   -5.0918 O.2       1 ATP        -0.8201
     11 O2A         1.8897   -0.4193   -4.9210 O.3       1 ATP        -0.8103
     12 O3A         0.9709    1.6610   -3.7745 O.3       1 ATP        -0.8038
     13 O5'         3.0190    0.5130   -2.8246 O.3       1 ATP        -0.5730
     14 C5'         2.2816   -0.2918   -1.9206 C.3       1 ATP         0.1929
     15 C4'         2.7248    0.0226   -0.4980 C.3       1 ATP         0.1044
     16 O4'         2.4697    1.4219   -0.2462 O.3       1 ATP        -0.4079
     17 C3'         1.9404   -0.7419    0.5596 C.3       1 ATP         0.1439
     18 O3'         2.7418   -0.8086    1.7389 O.3       1 ATP        -0.5593
     19 C2'         0.7477    0.1630    0.7858 C.3       1 ATP         0.0644
     20 O2'         0.1373   -0.0577    2.0407 O.3       1 ATP        -0.5595
     21 C1'         1.3733    1.5427    0.6747 C.3       1 ATP         0.3792
     22 N9          0.4520    2.5240    0.1767 N.pl3     1 ATP        -0.5557
     23 C8          0.5305    3.2394   -0.9358 C.ar      1 ATP         0.2849
     24 N7         -0.4966    4.0680   -1.1145 N.pl3     1 ATP        -0.5117
     25 C5         -1.2879    3.8664   -0.0375 C.ar      1 ATP        -0.2787
     26 C6         -2.4754    4.4084    0.3577 C.ar      1 ATP         0.7736
     27 N6         -3.0892    5.3882   -0.4495 N.pl3     1 ATP        -0.9480
     28 N1         -3.0632    4.0158    1.5092 N.ar      1 ATP        -0.7442
     29 C2         -2.4008    3.0654    2.2262 C.ar      1 ATP         0.7202
     30 N3         -1.2259    2.4663    1.9260 N.ar      1 ATP        -0.6957
     31 C4         -0.7062    2.9047    0.7757 C.ar      1 ATP         0.6231
     32 HOG3       -3.4919   -0.0111   -5.2260 H         1 ATP         0.4452
     33 HOB2       -2.2679    2.8963   -3.7845 H         1 ATP         0.4969
     34 HOA2        1.3778   -0.3837   -5.7569 H         1 ATP         0.4779
     35 H5'1        1.2149   -0.0786   -2.0446 H         1 ATP         0.0280
     36 H5'2        2.4641   -1.3459   -2.1539 H         1 ATP         0.0280
     37 H4'         3.8049   -0.1388   -0.4009 H         1 ATP         0.2049
     38 H3'         1.6783   -1.7629    0.2715 H         1 ATP         0.1077
     39 HO3'        2.2232   -1.2979    2.3953 H         1 ATP         0.4255
     40 H2'        -0.0011    0.0027    0.0003 H         1 ATP         0.0584
     41 HO2'       -0.1563   -0.9855    2.0596 H         1 ATP         0.4149
     42 H1'         1.7826    1.9024    1.6451 H         1 ATP         0.1459
     43 H8          1.3437    3.1645   -1.6367 H         1 ATP         0.2739
     44 HN61       -3.9824    5.7507   -0.1831 H         1 ATP         0.4605
     45 HN62       -2.6676    5.6358   -1.3220 H         1 ATP         0.4605
     46 H2         -2.8752    2.7532    3.1495 H         1 ATP         0.0904
     47 H47        -0.6372    4.7004   -1.8900 H         1 ATP         0.5017
@<TRIPOS>BOND
     1    1    2 2
     2    1    3 1
     3    1    4 1
     4    1    8 1
     5    4   32 1
     6    5    6 2
     7    5    7 1
     8    5    8 1
     9    5   12 1
    10    7   33 1
    11    9   10 2
    12    9   11 1
    13    9   12 1
    14    9   13 1
    15   11   34 1
    16   13   14 1
    17   14   15 1
    18   14   35 1
    19   14   36 1
    20   15   16 1
    21   15   17 1
    22   15   37 1
    23   16   21 1
    24   17   18 1
    25   17   19 1
    26   17   38 1
    27   18   39 1
    28   19   20 1
    29   19   21 1
    30   19   40 1
    31   20   41 1
    32   21   22 1
    33   21   42 1
    34   22   23 ar
    35   22   31 ar
    36   23   24 ar
    37   23   43 1
    38   24   25 ar
    39   24   47 1
    40   25   26 ar
    41   25   31 ar
    42   26   27 1
    43   26   28 ar
    44   27   44 1
    45   27   45 1
    46   28   29 ar
    47   29   30 ar
    48   29   46 1
    49   30   31 ar
@<TRIPOS>SUBSTRUCTURE
     1 ATP         1 GROUP 0 A     ****
@<TRIPOS>MOLECULE
[[[5-(6-amino-7,8-dihydropurin-8-ylium-9-yl)-3,4-dihydroxy-tetrahydrofuran-2-yl]methoxy-hydroxy-phosphoryl]oxy-hydroxy-phosphoryl] hydrogen phosphate
   47    49     1     0     0
SMALL
USER_CHARGES

@<TRIPOS>ATOM
      1 PG         -1.2650   -1.7041   -5.1208 P.3       1 ATP         1.5449
      2 O1G        -1.0395   -1.1275   -3.7407 O.co2     1 ATP        -0.8177
      3 O2G        -1.2799   -3.2005   -5.3410 O.co2     1 ATP        -0.8177
      4 O3G        -2.6466   -1.0761   -5.7228 O.3       1 ATP        -0.7779
      5 PB          1.4097   -1.1283   -6.2579 P.3       1 ATP         1.9141
      6 O1B         1.9474   -2.5105   -6.4844 O.2       1 ATP        -0.8754
      7 O2B         1.7926   -0.0536   -7.4033 O.3       1 ATP        -0.8083
      8 O3B        -0.1990   -1.0262   -6.1503 O.3       1 ATP        -0.8025
      9 PA          3.3392   -0.0290   -4.3163 P.3       1 ATP         1.8015
     10 O1A         4.1272    0.9231   -5.1687 O.2       1 ATP        -0.8201
     11 O2A         4.0576   -1.4591   -4.0783 O.3       1 ATP        -0.8103
     12 O3A         1.8781   -0.4177   -4.8854 O.3       1 ATP        -0.8038
     13 O5'         3.0190    0.5130   -2.8246 O.3       1 ATP        -0.5730
     14 C5'         2.2816   -0.2918   -1.9206 C.3       1 ATP         0.1929
     15 C4'         2.7248    0.0226   -0.4980 C.3       1 ATP         0.1044
     16 O4'         2.4697    1.4219   -0.2462 O.3       1 ATP        -0.4079
     17 C3'         1.9404   -0.7419    0.5596 C.3       1 ATP         0.1439
     18 O3'         2.7418   -0.8086    1.7389 O.3       1 ATP        -0.5593
     19 C2'         0.7477    0.1630    0.7858 C.3       1 ATP         0.0644
     20 O2'         0.1373   -0.0577    2.0407 O.3       1 ATP        -0.5595
     21 C1'         1.3733    1.5427    0.6747 C.3       1 ATP         0.3792
     22 N9          0.4520    2.5240    0.1767 N.pl3     1 ATP        -0.5557
     23 C8         -0.3477    3.3274    0.8626 C.ar      1 ATP         0.2849
     24 N7         -1.0836    4.1323    0.0983 N.pl3     1 ATP        -0.5117
     25 C5         -0.7273    3.8194   -1.1674 C.ar      1 ATP        -0.2787
     26 C6         -1.1208    4.2877   -2.3863 C.ar      1 ATP         0.7736
     27 N6         -2.0932    5.3066   -2.4528 N.pl3     1 ATP        -0.9480
     28 N1         -0.5892    3.7853   -3.5223 N.ar      1 ATP        -0.7442
     29 C2          0.3427    2.8040   -3.3648 C.ar      1 ATP         0.7202
     30 N3          0.8012    2.2709   -2.2093 N.ar      1 ATP        -0.6957
     31 C4          0.2307    2.8167   -1.1312 C.ar      1 ATP         0.6231
     32 HOG3       -2.9343   -1.3535   -6.6186 H         1 ATP         0.4452
     33 HOB2        2.7387    0.1372   -7.5780 H         1 ATP         0.4969
     34 HOA2        4.2678   -2.0191   -4.8556 H         1 ATP         0.4779
     35 H5'1        1.2149   -0.0786   -2.0446 H         1 ATP         0.0280
     36 H5'2        2.4641   -1.3459   -2.1539 H         1 ATP         0.0280
     37 H4'         3.8049   -0.1388   -0.4009 H         1 ATP         0.2049
     38 H3'         1.6783   -1.7629    0.2715 H         1 ATP         0.1077
     39 HO3'        2.2232   -1.2979    2.3953 H         1 ATP         0.4255
     40 H2'        -0.0011    0.0027    0.0003 H         1 ATP         0.0584
     41 HO2'       -0.6141    0.5574    2.1082 H         1 ATP         0.4149
     42 H1'         1.7826    1.9024    1.6451 H         1 ATP         0.1459
     43 H8         -0.4040    3.3373    1.9373 H         1 ATP         0.2739
     44 HN61       -2.5133    5.6366   -1.6073 H         1 ATP         0.4605
     45 HN62       -2.4153    5.6161   -3.3477 H         1 ATP         0.4605
     46 H2          0.7668    2.4032   -4.2782 H         1 ATP         0.0904
     47 H47        -1.7549    4.8194    0.4122 H         1 ATP         0.5017
@<TRIPOS>BOND
     1    1    2 2
     2    1    3 1
     3    1    4 1
     4    1    8 1
     5    4   32 1
     6    5    6 2
     7    5    7 1
     8    5    8 1
     9    5   12 1
    10    7   33 1
    11    9   10 2
    12    9   11 1
    13    9   12 1
    14    9   13 1
    15   11   34 1
    16   13   14 1
    17   14   15 1
    18   14   35 1
    19   14   36 1
    20   15   16 1
    21   15   17 1
    22   15   37 1
    23   16   21 1
    24   17   18 1
    25   17   19 1
    26   17   38 1
    27   18   39 1
    28   19   20 1
    29   19   21 1
    30   19   40 1
    31   20   41 1
    32   21   22 1
    33   21   42 1
    34   22   23 ar
    35   22   31 ar
    36   23   24 ar
    37   23   43 1
    38   24   25 ar
    39   24   47 1
    40   25   26 ar
    41   25   31 ar
    42   26   27 1
    43   26   28 ar
    44   27   44 1
    45   27   45 1
    46   28   29 ar
    47   29   30 ar
    48   29   46 1
    49   30   31 ar
@<TRIPOS>SUBSTRUCTURE
     1 ATP         1 GROUP 0 A     ****
@<TRIPOS>MOLECULE
[[[5-(6-amino-7,8-dihydropurin-8-ylium-9-yl)-3,4-dihydroxy-tetrahydrofuran-2-yl]methoxy-hydroxy-phosphoryl]oxy-hydroxy-phosphoryl] hydrogen phosphate
   47    49     1     0     0
SMALL
USER_CHARGES

@<TRIPOS>ATOM
      1 PG          6.2959   -3.3208   -5.3978 P.3       1 ATP         1.5449
      2 O1G         7.6618   -3.0823   -6.0023 O.co2     1 ATP        -0.8177
      3 O2G         5.0390   -3.0305   -6.1877 O.co2     1 ATP        -0.8177
      4 O3G         6.2302   -4.8623   -4.8638 O.3       1 ATP        -0.7779
      5 PB          5.6129   -1.1034   -3.5552 P.3       1 ATP         1.9141
      6 O1B         5.7387   -0.7509   -2.1023 O.2       1 ATP        -0.8754
      7 O2B         6.3370   -0.0739   -4.5698 O.3       1 ATP        -0.8083
      8 O3B         6.2155   -2.5446   -3.9671 O.3       1 ATP        -0.8025
      9 PA          2.8569   -2.1455   -3.6982 P.3       1 ATP         1.8015
     10 O1A         3.0916   -3.6213   -3.8417 O.2       1 ATP        -0.8201
     11 O2A         1.6263   -1.5787   -4.5826 O.3       1 ATP        -0.8103
     12 O3A         4.1019   -1.2047   -4.1164 O.3       1 ATP        -0.8038
     13 O5'         2.5233   -1.6623   -2.1893 O.3       1 ATP        -0.5730
     14 C5'         2.2816   -0.2918   -1.9206 C.3       1 ATP         0.1929
     15 C4'         2.7248    0.0226   -0.4980 C.3       1 ATP         0.1044
     16 O4'         2.4697    1.4219   -0.2462 O.3       1 ATP        -0.4079
     17 C3'         1.9404   -0.7419    0.5596 C.3       1 ATP         0.1439
     18 O3'         2.7418   -0.8086    1.7389 O.3       1 ATP        -0.5593
     19 C2'         0.7477    0.1630    0.7858 C.3       1 ATP         0.0644
     20 O2'         0.1373   -0.0577    2.0407 O.3       1 ATP        -0.5595
     21 C1'         1.3733    1.5427    0.6747 C.3       1 ATP         0.3792
     22 N9          0.4520    2.5240    0.1767 N.pl3     1 ATP        -0.5557
     23 C8         -0.2172    2.5216   -0.9668 C.ar      1 ATP         0.2849
     24 N7         -1.0011    3.5855   -1.1321 N.pl3     1 ATP        -0.5117
     25 C5         -0.8184    4.3200   -0.0123 C.ar      1 ATP        -0.2787
     26 C6         -1.3349    5.5079    0.4144 C.ar      1 ATP         0.7736
     27 N6         -2.2567    6.1930   -0.4036 N.pl3     1 ATP        -0.9480
     28 N1         -0.9716    6.0291    1.6069 N.ar      1 ATP        -0.7442
     29 C2         -0.0765    5.3009    2.3312 C.ar      1 ATP         0.7202
     30 N3          0.4933    4.1191    2.0023 N.ar      1 ATP        -0.6957
     31 C4          0.0865    3.6675    0.8123 C.ar      1 ATP         0.6231
     32 HOG3        5.4020   -5.1754   -4.4416 H         1 ATP         0.4452
     33 HOB2        7.3045    0.0677   -4.4919 H         1 ATP         0.4969
     34 HOA2        1.6578   -1.6789   -5.5579 H         1 ATP         0.4779
     35 H5'1        2.8428    0.3149   -2.6387 H         1 ATP         0.0280
     36 H5'2        1.2124   -0.0897   -2.0417 H         1 ATP         0.0280
     37 H4'         3.8049   -0.1388   -0.4009 H         1 ATP         0.2049
     38 H3'         1.6783   -1.7629    0.2715 H         1 ATP         0.1077
     39 HO3'        2.2232   -1.2979    2.3953 H         1 ATP         0.4255
     40 H2'        -0.0011    0.0027    0.0003 H         1 ATP         0.0584
     41 HO2'       -0.6141    0.5574    2.1082 H         1 ATP         0.4149
     42 H1'         1.7826    1.9024    1.6451 H         1 ATP         0.1459
     43 H8         -0.1423    1.7373   -1.6999 H         1 ATP         0.2739
     44 HN61       -2.6706    7.0399   -0.0694 H         1 ATP         0.4605
     45 HN62       -2.5527    5.7740   -1.2621 H         1 ATP         0.4605
     46 H2          0.2128    5.7222    3.2871 H         1 ATP         0.0904
     47 H47        -1.5947    3.7835   -1.9255 H         1 ATP         0.5017
@<TRIPOS>BOND
     1    1    2 2
     2    1    3 1
     3    1    4 1
     4    1    8 1
     5    4   32 1
     6    5    6 2
     7    5    7 1
     8    5    8 1
     9    5   12 1
    10    7   33 1
    11    9   10 2
    12    9   11 1
    13    9   12 1
    14    9   13 1
    15   11   34 1
    16   13   14 1
    17   14   15 1
    18   14   35 1
    19   14   36 1
    20   15   16 1
    21   15   17 1
    22   15   37 1
    23   16   21 1
    24   17   18 1
    25   17   19 1
    26   17   38 1
    27   18   39 1
    28   19   20 1
    29   19   21 1
    30   19   40 1
    31   20   41 1
    32   21   22 1
    33   21   42 1
    34   22   23 ar
    35   22   31 ar
    36   23   24 ar
    37   23   43 1
    38   24   25 ar
    39   24   47 1
    40   25   26 ar
    41   25   31 ar
    42   26   27 1
    43   26   28 ar
    44   27   44 1
    45   27   45 1
    46   28   29 ar
    47   29   30 ar
    48   29   46 1
    49   30   31 ar
@<TRIPOS>SUBSTRUCTURE
     1 ATP         1 GROUP 0 A     ****
@<TRIPOS>MOLECULE
[[[5-(6-amino-7,8-dihydropurin-8-ylium-9-yl)-3,4-dihydroxy-tetrahydrofuran-2-yl]methoxy-hydroxy-phosphoryl]oxy-hydroxy-phosphoryl] hydrogen phosphate
   47    49     1     0     0
SMALL
USER_CHARGES

@<TRIPOS>ATOM
      1 PG          4.0979    1.4948   -6.2012 P.3       1 ATP         1.5449
      2 O1G         4.1553    1.6607   -4.6988 O.co2     1 ATP        -0.8177
      3 O2G         3.0464    2.2114   -7.0190 O.co2     1 ATP        -0.8177
      4 O3G         5.5676    1.8521   -6.8160 O.3       1 ATP        -0.7779
      5 PB          2.9242   -1.2245   -6.2783 P.3       1 ATP         1.9141
      6 O1B         1.5910   -0.9620   -6.9142 O.2       1 ATP        -0.8754
      7 O2B         3.6362   -2.6020   -6.7356 O.3       1 ATP        -0.8083
      8 O3B         4.0485   -0.0965   -6.5491 O.3       1 ATP        -0.8025
      9 PA          2.1471   -2.2827   -3.6367 P.3       1 ATP         1.8015
     10 O1A         2.4550   -3.7444   -3.7865 O.2       1 ATP        -0.8201
     11 O2A         0.5865   -1.9075   -3.8410 O.3       1 ATP        -0.8103
     12 O3A         2.9198   -1.3056   -4.6653 O.3       1 ATP        -0.8038
     13 O5'         2.5233   -1.6623   -2.1893 O.3       1 ATP        -0.5730
     14 C5'         2.2816   -0.2918   -1.9206 C.3       1 ATP         0.1929
     15 C4'         2.7248    0.0226   -0.4980 C.3       1 ATP         0.1044
     16 O4'         2.4697    1.4219   -0.2462 O.3       1 ATP        -0.4079
     17 C3'         1.9404   -0.7419    0.5596 C.3       1 ATP         0.1439
     18 O3'         2.7418   -0.8086    1.7389 O.3       1 ATP        -0.5593
     19 C2'         0.7477    0.1630    0.7858 C.3       1 ATP         0.0644
     20 O2'         0.1373   -0.0577    2.0407 O.3       1 ATP        -0.5595
     21 C1'         1.3733    1.5427    0.6747 C.3       1 ATP         0.3792
     22 N9          0.4520    2.5240    0.1767 N.pl3     1 ATP        -0.5557
     23 C8         -0.3477    3.3274    0.8626 C.ar      1 ATP         0.2849
     24 N7         -1.0836    4.1323    0.0983 N.pl3     1 ATP        -0.5117
     25 C5         -0.7273    3.8194   -1.1674 C.ar      1 ATP        -0.2787
     26 C6         -1.1208    4.2877   -2.3863 C.ar      1 ATP         0.7736
     27 N6         -2.0932    5.3066   -2.4528 N.pl3     1 ATP        -0.9480
     28 N1         -0.5892    3.7853   -3.5223 N.ar      1 ATP        -0.7442
     29 C2          0.3427    2.8040   -3.3648 C.ar      1 ATP         0.7202
     30 N3          0.8012    2.2709   -2.2093 N.ar      1 ATP        -0.6957
     31 C4          0.2307    2.8167   -1.1312 C.ar      1 ATP         0.6231
     32 HOG3        5.6951    1.7918   -7.7867 H         1 ATP         0.4452
     33 HOB2        3.1760   -3.4521   -6.5694 H         1 ATP         0.4969
     34 HOA2        0.1583   -2.1116   -4.6996 H         1 ATP         0.4779
     35 H5'1        2.8428    0.3149   -2.6387 H         1 ATP         0.0280
     36 H5'2        1.2124   -0.0897   -2.0417 H         1 ATP         0.0280
     37 H4'         3.8049   -0.1388   -0.4009 H         1 ATP         0.2049
     38 H3'         1.6783   -1.7629    0.2715 H         1 ATP         0.1077
     39 HO3'        2.2232   -1.2979    2.3953 H         1 ATP         0.4255
     40 H2'        -0.0011    0.0027    0.0003 H         1 ATP         0.0584
     41 HO2'       -0.6141    0.5574    2.1082 H         1 ATP         0.4149
     42 H1'         1.7826    1.9024    1.6451 H         1 ATP         0.1459
     43 H8         -0.4040    3.3373    1.9373 H         1 ATP         0.2739
     44 HN61       -2.5133    5.6366   -1.6073 H         1 ATP         0.4605
     45 HN62       -2.4153    5.6161   -3.3477 H         1 ATP         0.4605
     46 H2          0.7668    2.4032   -4.2782 H         1 ATP         0.0904
     47 H47        -1.7549    4.8194    0.4122 H         1 ATP         0.5017
@<TRIPOS>BOND
     1    1    2 2
     2    1    3 1
     3    1    4 1
     4    1    8 1
     5    4   32 1
     6    5    6 2
     7    5    7 1
     8    5    8 1
     9    5   12 1
    10    7   33 1
    11    9   10 2
    12    9   11 1
    13    9   12 1
    14    9   13 1
    15   11   34 1
    16   13   14 1
    17   14   15 1
    18   14   35 1
    19   14   36 1
    20   15   16 1
    21   15   17 1
    22   15   37 1
    23   16   21 1
    24   17   18 1
    25   17   19 1
    26   17   38 1
    27   18   39 1
    28   19   20 1
    29   19   21 1
    30   19   40 1
    31   20   41 1
    32   21   22 1
    33   21   42 1
    34   22   23 ar
    35   22   31 ar
    36   23   24 ar
    37   23   43 1
    38   24   25 ar
    39   24   47 1
    40   25   26 ar
    41   25   31 ar
    42   26   27 1
    43   26   28 ar
    44   27   44 1
    45   27   45 1
    46   28   29 ar
    47   29   30 ar
    48   29   46 1
    49   30   31 ar
@<TRIPOS>SUBSTRUCTURE
     1 ATP         1 GROUP 0 A     ****
@<TRIPOS>MOLECULE
[[[5-(6-amino-7,8-dihydropurin-8-ylium-9-yl)-3,4-dihydroxy-tetrahydrofuran-2-yl]methoxy-hydroxy-phosphoryl]oxy-hydroxy-phosphoryl] hydrogen phosphate
   47    49     1     0     0
SMALL
USER_CHARGES

@<TRIPOS>ATOM
      1 PG         -0.0143   -2.3805   -5.2762 P.3       1 ATP         1.5449
      2 O1G        -1.4321   -2.8590   -5.4973 O.co2     1 ATP        -0.8177
      3 O2G         0.5126   -2.1419   -3.8786 O.co2     1 ATP        -0.8177
      4 O3G         1.0005   -3.4007   -6.0475 O.3       1 ATP        -0.7779
      5 PB          0.1563    0.5300   -5.8039 P.3       1 ATP         1.9141
      6 O1B         0.4562    1.4657   -6.9377 O.2       1 ATP        -0.8754
      7 O2B        -1.3096    0.7074   -5.1456 O.3       1 ATP        -0.8083
      8 O3B         0.2302   -1.0412   -6.1720 O.3       1 ATP        -0.8025
      9 PA          2.7564    0.3912   -4.4176 P.3       1 ATP         1.8015
     10 O1A         3.6045    1.2999   -5.2596 O.2       1 ATP        -0.8201
     11 O2A         2.9489   -1.1831   -4.7370 O.3       1 ATP        -0.8103
     12 O3A         1.1624    0.6216   -4.5439 O.3       1 ATP        -0.8038
     13 O5'         3.0190    0.5130   -2.8246 O.3       1 ATP        -0.5730
     14 C5'         2.2816   -0.2918   -1.9206 C.3       1 ATP         0.1929
     15 C4'         2.7248    0.0226   -0.4980 C.3       1 ATP         0.1044
     16 O4'         2.4697    1.4219   -0.2462 O.3       1 ATP        -0.4079
     17 C3'         1.9404   -0.7419    0.5596 C.3       1 ATP         0.1439
     18 O3'         2.7418   -0.8086    1.7389 O.3       1 ATP        -0.5593
     19 C2'         0.7477    0.1630    0.7858 C.3       1 ATP         0.0644
     20 O2'         0.1373   -0.0577    2.0407 O.3       1 ATP        -0.5595
     21 C1'         1.3733    1.5427    0.6747 C.3       1 ATP         0.3792
     22 N9          0.4520    2.5240    0.1767 N.pl3     1 ATP        -0.5557
     23 C8         -0.2172    2.5216   -0.9668 C.ar      1 ATP         0.2849
     24 N7         -1.0011    3.5855   -1.1321 N.pl3     1 ATP        -0.5117
     25 C5         -0.8184    4.3200   -0.0123 C.ar      1 ATP        -0.2787
     26 C6         -1.3349    5.5079    0.4144 C.ar      1 ATP         0.7736
     27 N6         -2.2567    6.1930   -0.4036 N.pl3     1 ATP        -0.9480
     28 N1         -0.9716    6.0291    1.6069 N.ar      1 ATP        -0.7442
     29 C2         -0.0765    5.3009    2.3312 C.ar      1 ATP         0.7202
     30 N3          0.4933    4.1191    2.0023 N.ar      1 ATP        -0.6957
     31 C4          0.0865    3.6675    0.8123 C.ar      1 ATP         0.6231
     32 HOG3        1.9645   -3.2255   -5.9996 H         1 ATP         0.4452
     33 HOB2       -2.1018    0.5816   -5.7101 H         1 ATP         0.4969
     34 HOA2        3.8370   -1.5843   -4.6259 H         1 ATP         0.4779
     35 H5'1        1.2149   -0.0786   -2.0446 H         1 ATP         0.0280
     36 H5'2        2.4641   -1.3459   -2.1539 H         1 ATP         0.0280
     37 H4'         3.8049   -0.1388   -0.4009 H         1 ATP         0.2049
     38 H3'         1.6783   -1.7629    0.2715 H         1 ATP         0.1077
     39 HO3'        3.5554   -1.2733    1.4914 H         1 ATP         0.4255
     40 H2'        -0.0011    0.0027    0.0003 H         1 ATP         0.0584
     41 HO2'       -0.6141    0.5574    2.1082 H         1 ATP         0.4149
     42 H1'         1.7826    1.9024    1.6451 H         1 ATP         0.1459
     43 H8         -0.1423    1.7373   -1.6999 H         1 ATP         0.2739
     44 HN61       -2.4811    5.8206   -1.3042 H         1 ATP         0.4605
     45 HN62       -2.5986    7.0863   -0.1113 H         1 ATP         0.4605
     46 H2          0.2128    5.7222    3.2871 H         1 ATP         0.0904
     47 H47        -1.5947    3.7835   -1.9255 H         1 ATP         0.5017
@<TRIPOS>BOND
     1    1    2 2
     2    1    3 1
     3    1    4 1
     4    1    8 1
     5    4   32 1
     6    5    6 2
     7    5    7 1
     8    5    8 1
     9    5   12 1
    10    7   33 1
    11    9   10 2
    12    9   11 1
    13    9   12 1
    14    9   13 1
    15   11   34 1
    16   13   14 1
    17   14   15 1
    18   14   35 1
    19   14   36 1
    20   15   16 1
    21   15   17 1
    22   15   37 1
    23   16   21 1
    24   17   18 1
    25   17   19 1
    26   17   38 1
    27   18   39 1
    28   19   20 1
    29   19   21 1
    30   19   40 1
    31   20   41 1
    32   21   22 1
    33   21   42 1
    34   22   23 ar
    35   22   31 ar
    36   23   24 ar
    37   23   43 1
    38   24   25 ar
    39   24   47 1
    40   25   26 ar
    41   25   31 ar
    42   26   27 1
    43   26   28 ar
    44   27   44 1
    45   27   45 1
    46   28   29 ar
    47   29   30 ar
    48   29   46 1
    49   30   31 ar
@<TRIPOS>SUBSTRUCTURE
     1 ATP         1 GROUP 0 A     ****
@<TRIPOS>MOLECULE
[[[5-(6-amino-7,8-dihydropurin-8-ylium-9-yl)-3,4-dihydroxy-tetrahydrofuran-2-yl]methoxy-hydroxy-phosphoryl]oxy-hydroxy-phosphoryl] hydrogen phosphate
   47    49     1     0     0
SMALL
USER_CHARGES

@<TRIPOS>ATOM
      1 PG          4.0979    1.4948   -6.2012 P.3       1 ATP         1.5449
      2 O1G         2.6810    2.0012   -6.0468 O.co2     1 ATP        -0.8177
      3 O2G         5.0644    2.1761   -7.1444 O.co2     1 ATP        -0.8177
      4 O3G         4.7825    1.4184   -4.7209 O.3       1 ATP        -0.7779
      5 PB          2.9242   -1.2245   -6.2783 P.3       1 ATP         1.9141
      6 O1B         1.5910   -0.9620   -6.9142 O.2       1 ATP        -0.8754
      7 O2B         3.6362   -2.6020   -6.7356 O.3       1 ATP        -0.8083
      8 O3B         4.0485   -0.0965   -6.5491 O.3       1 ATP        -0.8025
      9 PA          2.1471   -2.2827   -3.6367 P.3       1 ATP         1.8015
     10 O1A         2.4550   -3.7444   -3.7865 O.2       1 ATP        -0.8201
     11 O2A         0.5865   -1.9075   -3.8410 O.3       1 ATP        -0.8103
     12 O3A         2.9198   -1.3056   -4.6653 O.3       1 ATP        -0.8038
     13 O5'         2.5233   -1.6623   -2.1893 O.3       1 ATP        -0.5730
     14 C5'         2.2816   -0.2918   -1.9206 C.3       1 ATP         0.1929
     15 C4'         2.7248    0.0226   -0.4980 C.3       1 ATP         0.1044
     16 O4'         2.4697    1.4219   -0.2462 O.3       1 ATP        -0.4079
     17 C3'         1.9404   -0.7419    0.5596 C.3       1 ATP         0.1439
     18 O3'         2.7418   -0.8086    1.7389 O.3       1 ATP        -0.5593
     19 C2'         0.7477    0.1630    0.7858 C.3       1 ATP         0.0644
     20 O2'         0.1373   -0.0577    2.0407 O.3       1 ATP        -0.5595
     21 C1'         1.3733    1.5427    0.6747 C.3       1 ATP         0.3792
     22 N9          0.4520    2.5240    0.1767 N.pl3     1 ATP        -0.5557
     23 C8          0.5305    3.2394   -0.9358 C.ar      1 ATP         0.2849
     24 N7         -0.4966    4.0680   -1.1145 N.pl3     1 ATP        -0.5117
     25 C5         -1.2879    3.8664   -0.0375 C.ar      1 ATP        -0.2787
     26 C6         -2.4754    4.4084    0.3577 C.ar      1 ATP         0.7736
     27 N6         -3.0892    5.3882   -0.4495 N.pl3     1 ATP        -0.9480
     28 N1         -3.0632    4.0158    1.5092 N.ar      1 ATP        -0.7442
     29 C2         -2.4008    3.0654    2.2262 C.ar      1 ATP         0.7202
     30 N3         -1.2259    2.4663    1.9260 N.ar      1 ATP        -0.6957
     31 C4         -0.7062    2.9047    0.7757 C.ar      1 ATP         0.6231
     32 HOG3        5.7096    1.1056   -4.6507 H         1 ATP         0.4452
     33 HOB2        3.1760   -3.4521   -6.5694 H         1 ATP         0.4969
     34 HOA2        0.1583   -2.1116   -4.6996 H         1 ATP         0.4779
     35 H5'1        2.8428    0.3149   -2.6387 H         1 ATP         0.0280
     36 H5'2        1.2124   -0.0897   -2.0417 H         1 ATP         0.0280
     37 H4'         3.8049   -0.1388   -0.4009 H         1 ATP         0.2049
     38 H3'         1.6783   -1.7629    0.2715 H         1 ATP         0.1077
     39 HO3'        3.5554   -1.2733    1.4914 H         1 ATP         0.4255
     40 H2'        -0.0011    0.0027    0.0003 H         1 ATP         0.0584
     41 HO2'       -0.1563   -0.9855    2.0596 H         1 ATP         0.4149
     42 H1'         1.7826    1.9024    1.6451 H         1 ATP         0.1459
     43 H8          1.3437    3.1645   -1.6367 H         1 ATP         0.2739
     44 HN61       -2.6210    5.7042   -1.2748 H         1 ATP         0.4605
     45 HN62       -3.9356    5.8187   -0.1356 H         1 ATP         0.4605
     46 H2         -2.8752    2.7532    3.1495 H         1 ATP         0.0904
     47 H47        -0.6372    4.7004   -1.8900 H         1 ATP         0.5017
@<TRIPOS>BOND
     1    1    2 2
     2    1    3 1
     3    1    4 1
     4    1    8 1
     5    4   32 1
     6    5    6 2
     7    5    7 1
     8    5    8 1
     9    5   12 1
    10    7   33 1
    11    9   10 2
    12    9   11 1
    13    9   12 1
    14    9   13 1
    15   11   34 1
    16   13   14 1
    17   14   15 1
    18   14   35 1
    19   14   36 1
    20   15   16 1
    21   15   17 1
    22   15   37 1
    23   16   21 1
    24   17   18 1
    25   17   19 1
    26   17   38 1
    27   18   39 1
    28   19   20 1
    29   19   21 1
    30   19   40 1
    31   20   41 1
    32   21   22 1
    33   21   42 1
    34   22   23 ar
    35   22   31 ar
    36   23   24 ar
    37   23   43 1
    38   24   25 ar
    39   24   47 1
    40   25   26 ar
    41   25   31 ar
    42   26   27 1
    43   26   28 ar
    44   27   44 1
    45   27   45 1
    46   28   29 ar
    47   29   30 ar
    48   29   46 1
    49   30   31 ar
@<TRIPOS>SUBSTRUCTURE
     1 ATP         1 GROUP 0 A     ****
@<TRIPOS>MOLECULE
[[[5-(6-amino-7,8-dihydropurin-8-ylium-9-yl)-3,4-dihydroxy-tetrahydrofuran-2-yl]methoxy-hydroxy-phosphoryl]oxy-hydroxy-phosphoryl] hydrogen phosphate
   47    49     1     0     0
SMALL
USER_CHARGES

@<TRIPOS>ATOM
      1 PG          5.0586   -0.8072   -7.3781 P.3       1 ATP         1.5449
      2 O1G         5.8904    0.3048   -7.9777 O.co2     1 ATP        -0.8177
      3 O2G         3.5636   -0.8615   -7.6012 O.co2     1 ATP        -0.8177
      4 O3G         5.7045   -2.2364   -7.8319 O.3       1 ATP        -0.7779
      5 PB          4.8982   -1.9306   -4.6412 P.3       1 ATP         1.9141
      6 O1B         5.3315   -3.3487   -4.8690 O.2       1 ATP        -0.8754
      7 O2B         5.4273   -1.2710   -3.2633 O.3       1 ATP        -0.8083
      8 O3B         5.3601   -0.8800   -5.7782 O.3       1 ATP        -0.8025
      9 PA          2.1471   -2.2827   -3.6367 P.3       1 ATP         1.8015
     10 O1A         2.0004   -3.7767   -3.6545 O.2       1 ATP        -0.8201
     11 O2A         0.8165   -1.4786   -4.0847 O.3       1 ATP        -0.8103
     12 O3A         3.3016   -1.6910   -4.5994 O.3       1 ATP        -0.8038
     13 O5'         2.5233   -1.6623   -2.1893 O.3       1 ATP        -0.5730
     14 C5'         2.2816   -0.2918   -1.9206 C.3       1 ATP         0.1929
     15 C4'         2.7248    0.0226   -0.4980 C.3       1 ATP         0.1044
     16 O4'         2.4697    1.4219   -0.2462 O.3       1 ATP        -0.4079
     17 C3'         1.9404   -0.7419    0.5596 C.3       1 ATP         0.1439
     18 O3'         2.7418   -0.8086    1.7389 O.3       1 ATP        -0.5593
     19 C2'         0.7477    0.1630    0.7858 C.3       1 ATP         0.0644
     20 O2'         0.1373   -0.0577    2.0407 O.3       1 ATP        -0.5595
     21 C1'         1.3733    1.5427    0.6747 C.3       1 ATP         0.3792
     22 N9          0.4520    2.5240    0.1767 N.pl3     1 ATP        -0.5557
     23 C8          0.5305    3.2394   -0.9358 C.ar      1 ATP         0.2849
     24 N7         -0.4966    4.0680   -1.1145 N.pl3     1 ATP        -0.5117
     25 C5         -1.2879    3.8664   -0.0375 C.ar      1 ATP        -0.2787
     26 C6         -2.4754    4.4084    0.3577 C.ar      1 ATP         0.7736
     27 N6         -3.0892    5.3882   -0.4495 N.pl3     1 ATP        -0.9480
     28 N1         -3.0632    4.0158    1.5092 N.ar      1 ATP        -0.7442
     29 C2         -2.4008    3.0654    2.2262 C.ar      1 ATP         0.7202
     30 N3         -1.2259    2.4663    1.9260 N.ar      1 ATP        -0.6957
     31 C4         -0.7062    2.9047    0.7757 C.ar      1 ATP         0.6231
     32 HOG3        5.2757   -3.0623   -7.5215 H         1 ATP         0.4452
     33 HOB2        5.1750   -1.6857   -2.4110 H         1 ATP         0.4969
     34 HOA2        0.4510   -1.6295   -4.9823 H         1 ATP         0.4779
     35 H5'1        2.8428    0.3149   -2.6387 H         1 ATP         0.0280
     36 H5'2        1.2124   -0.0897   -2.0417 H         1 ATP         0.0280
     37 H4'         3.8049   -0.1388   -0.4009 H         1 ATP         0.2049
     38 H3'         1.6783   -1.7629    0.2715 H         1 ATP         0.1077
     39 HO3'        3.5554   -1.2733    1.4914 H         1 ATP         0.4255
     40 H2'        -0.0011    0.0027    0.0003 H         1 ATP         0.0584
     41 HO2'       -0.1563   -0.9855    2.0596 H         1 ATP         0.4149
     42 H1'         1.7826    1.9024    1.6451 H         1 ATP         0.1459
     43 H8          1.3437    3.1645   -1.6367 H         1 ATP         0.2739
     44 HN61       -2.6210    5.7042   -1.2748 H         1 ATP         0.4605
     45 HN62       -3.9356    5.8187   -0.1356 H         1 ATP         0.4605
     46 H2         -2.8752    2.7532    3.1495 H         1 ATP         0.0904
     47 H47        -0.6372    4.7004   -1.8900 H         1 ATP         0.5017
@<TRIPOS>BOND
     1    1    2 2
     2    1    3 1
     3    1    4 1
     4    1    8 1
     5    4   32 1
     6    5    6 2
     7    5    7 1
     8    5    8 1
     9    5   12 1
    10    7   33 1
    11    9   10 2
    12    9   11 1
    13    9   12 1
    14    9   13 1
    15   11   34 1
    16   13   14 1
    17   14   15 1
    18   14   35 1
    19   14   36 1
    20   15   16 1
    21   15   17 1
    22   15   37 1
    23   16   21 1
    24   17   18 1
    25   17   19 1
    26   17   38 1
    27   18   39 1
    28   19   20 1
    29   19   21 1
    30   19   40 1
    31   20   41 1
    32   21   22 1
    33   21   42 1
    34   22   23 ar
    35   22   31 ar
    36   23   24 ar
    37   23   43 1
    38   24   25 ar
    39   24   47 1
    40   25   26 ar
    41   25   31 ar
    42   26   27 1
    43   26   28 ar
    44   27   44 1
    45   27   45 1
    46   28   29 ar
    47   29   30 ar
    48   29   46 1
    49   30   31 ar
@<TRIPOS>SUBSTRUCTURE
     1 ATP         1 GROUP 0 A     ****
@<TRIPOS>MOLECULE
[[[5-(6-amino-7,8-dihydropurin-8-ylium-9-yl)-3,4-dihydroxy-tetrahydrofuran-2-yl]methoxy-hydroxy-phosphoryl]oxy-hydroxy-phosphoryl] hydrogen phosphate
   47    49     1     0     0
SMALL
USER_CHARGES

@<TRIPOS>ATOM
      1 PG         -1.8079    1.7800   -6.8167 P.3       1 ATP         1.5449
      2 O1G        -2.0184    0.4509   -7.5075 O.co2     1 ATP        -0.8177
      3 O2G        -1.5458    3.0356   -7.6185 O.co2     1 ATP        -0.8177
      4 O3G        -3.0754    2.0518   -5.8242 O.3       1 ATP        -0.7779
      5 PB         -0.0710    2.6092   -4.5641 P.3       1 ATP         1.9141
      6 O1B         0.4936    3.9016   -5.0757 O.2       1 ATP        -0.8754
      7 O2B        -1.3092    2.7676   -3.5367 O.3       1 ATP        -0.8083
      8 O3B        -0.6334    1.6078   -5.7001 O.3       1 ATP        -0.8025
      9 PA          2.3569    0.9674   -4.2305 P.3       1 ATP         1.8015
     10 O1A         3.2462    1.8166   -5.0918 O.2       1 ATP        -0.8201
     11 O2A         1.8897   -0.4193   -4.9210 O.3       1 ATP        -0.8103
     12 O3A         0.9709    1.6610   -3.7745 O.3       1 ATP        -0.8038
     13 O5'         3.0190    0.5130   -2.8246 O.3       1 ATP        -0.5730
     14 C5'         2.2816   -0.2918   -1.9206 C.3       1 ATP         0.1929
     15 C4'         2.7248    0.0226   -0.4980 C.3       1 ATP         0.1044
     16 O4'         2.4697    1.4219   -0.2462 O.3       1 ATP        -0.4079
     17 C3'         1.9404   -0.7419    0.5596 C.3       1 ATP         0.1439
     18 O3'         2.7418   -0.8086    1.7389 O.3       1 ATP        -0.5593
     19 C2'         0.7477    0.1630    0.7858 C.3       1 ATP         0.0644
     20 O2'         0.1373   -0.0577    2.0407 O.3       1 ATP        -0.5595
     21 C1'         1.3733    1.5427    0.6747 C.3       1 ATP         0.3792
     22 N9          0.4520    2.5240    0.1767 N.pl3     1 ATP        -0.5557
     23 C8          0.5305    3.2394   -0.9358 C.ar      1 ATP         0.2849
     24 N7         -0.4966    4.0680   -1.1145 N.pl3     1 ATP        -0.5117
     25 C5         -1.2879    3.8664   -0.0375 C.ar      1 ATP        -0.2787
     26 C6         -2.4754    4.4084    0.3577 C.ar      1 ATP         0.7736
     27 N6         -3.0892    5.3882   -0.4495 N.pl3     1 ATP        -0.9480
     28 N1         -3.0632    4.0158    1.5092 N.ar      1 ATP        -0.7442
     29 C2         -2.4008    3.0654    2.2262 C.ar      1 ATP         0.7202
     30 N3         -1.2259    2.4663    1.9260 N.ar      1 ATP        -0.6957
     31 C4         -0.7062    2.9047    0.7757 C.ar      1 ATP         0.6231
     32 HOG3       -3.0885    2.8807   -5.2996 H         1 ATP         0.4452
     33 HOB2       -2.1229    3.2231   -3.8408 H         1 ATP         0.4969
     34 HOA2        1.3778   -0.3837   -5.7569 H         1 ATP         0.4779
     35 H5'1        1.2149   -0.0786   -2.0446 H         1 ATP         0.0280
     36 H5'2        2.4641   -1.3459   -2.1539 H         1 ATP         0.0280
     37 H4'         3.8049   -0.1388   -0.4009 H         1 ATP         0.2049
     38 H3'         1.6783   -1.7629    0.2715 H         1 ATP         0.1077
     39 HO3'        3.5554   -1.2733    1.4914 H         1 ATP         0.4255
     40 H2'        -0.0011    0.0027    0.0003 H         1 ATP         0.0584
     41 HO2'       -0.1563   -0.9855    2.0596 H         1 ATP         0.4149
     42 H1'         1.7826    1.9024    1.6451 H         1 ATP         0.1459
     43 H8          1.3437    3.1645   -1.6367 H         1 ATP         0.2739
     44 HN61       -3.9824    5.7507   -0.1831 H         1 ATP         0.4605
     45 HN62       -2.6676    5.6358   -1.3220 H         1 ATP         0.4605
     46 H2         -2.8752    2.7532    3.1495 H         1 ATP         0.0904
     47 H47        -0.6372    4.7004   -1.8900 H         1 ATP         0.5017
@<TRIPOS>BOND
     1    1    2 2
     2    1    3 1
     3    1    4 1
     4    1    8 1
     5    4   32 1
     6    5    6 2
     7    5    7 1
     8    5    8 1
     9    5   12 1
    10    7   33 1
    11    9   10 2
    12    9   11 1
    13    9   12 1
    14    9   13 1
    15   11   34 1
    16   13   14 1
    17   14   15 1
    18   14   35 1
    19   14   36 1
    20   15   16 1
    21   15   17 1
    22   15   37 1
    23   16   21 1
    24   17   18 1
    25   17   19 1
    26   17   38 1
    27   18   39 1
    28   19   20 1
    29   19   21 1
    30   19   40 1
    31   20   41 1
    32   21   22 1
    33   21   42 1
    34   22   23 ar
    35   22   31 ar
    36   23   24 ar
    37   23   43 1
    38   24   25 ar
    39   24   47 1
    40   25   26 ar
    41   25   31 ar
    42   26   27 1
    43   26   28 ar
    44   27   44 1
    45   27   45 1
    46   28   29 ar
    47   29   30 ar
    48   29   46 1
    49   30   31 ar
@<TRIPOS>SUBSTRUCTURE
     1 ATP         1 GROUP 0 A     ****
@<TRIPOS>MOLECULE
[[[5-(6-amino-7,8-dihydropurin-8-ylium-9-yl)-3,4-dihydroxy-tetrahydrofuran-2-yl]methoxy-hydroxy-phosphoryl]oxy-hydroxy-phosphoryl] hydrogen phosphate
   47    49     1     0     0
SMALL
USER_CHARGES

@<TRIPOS>ATOM
      1 PG          3.8077    0.1690   -7.9916 P.3       1 ATP         1.5449
      2 O1G         2.4172    0.0970   -8.5827 O.co2     1 ATP        -0.8177
      3 O2G         4.9865   -0.4496   -8.7097 O.co2     1 ATP        -0.8177
      4 O3G         4.1535    1.7331   -7.6759 O.3       1 ATP        -0.7779
      5 PB          4.8985   -1.0269   -5.5100 P.3       1 ATP         1.9141
      6 O1B         5.5618   -2.2656   -6.0360 O.2       1 ATP        -0.8754
      7 O2B         5.8973    0.2136   -5.2323 O.3       1 ATP        -0.8083
      8 O3B         3.7563   -0.4008   -6.4657 O.3       1 ATP        -0.8025
      9 PA          2.8569   -2.1455   -3.6982 P.3       1 ATP         1.8015
     10 O1A         3.0916   -3.6213   -3.8417 O.2       1 ATP        -0.8201
     11 O2A         1.6263   -1.5787   -4.5826 O.3       1 ATP        -0.8103
     12 O3A         4.1019   -1.2047   -4.1164 O.3       1 ATP        -0.8038
     13 O5'         2.5233   -1.6623   -2.1893 O.3       1 ATP        -0.5730
     14 C5'         2.2816   -0.2918   -1.9206 C.3       1 ATP         0.1929
     15 C4'         2.7248    0.0226   -0.4980 C.3       1 ATP         0.1044
     16 O4'         2.4697    1.4219   -0.2462 O.3       1 ATP        -0.4079
     17 C3'         1.9404   -0.7419    0.5596 C.3       1 ATP         0.1439
     18 O3'         2.7418   -0.8086    1.7389 O.3       1 ATP        -0.5593
     19 C2'         0.7477    0.1630    0.7858 C.3       1 ATP         0.0644
     20 O2'         0.1373   -0.0577    2.0407 O.3       1 ATP        -0.5595
     21 C1'         1.3733    1.5427    0.6747 C.3       1 ATP         0.3792
     22 N9          0.4520    2.5240    0.1767 N.pl3     1 ATP        -0.5557
     23 C8         -0.2172    2.5216   -0.9668 C.ar      1 ATP         0.2849
     24 N7         -1.0011    3.5855   -1.1321 N.pl3     1 ATP        -0.5117
     25 C5         -0.8184    4.3200   -0.0123 C.ar      1 ATP        -0.2787
     26 C6         -1.3349    5.5079    0.4144 C.ar      1 ATP         0.7736
     27 N6         -2.2567    6.1930   -0.4036 N.pl3     1 ATP        -0.9480
     28 N1         -0.9716    6.0291    1.6069 N.ar      1 ATP        -0.7442
     29 C2         -0.0765    5.3009    2.3312 C.ar      1 ATP         0.7202
     30 N3          0.4933    4.1191    2.0023 N.ar      1 ATP        -0.6957
     31 C4          0.0865    3.6675    0.8123 C.ar      1 ATP         0.6231
     32 HOG3        5.0273    1.9487   -7.2858 H         1 ATP         0.4452
     33 HOB2        6.4184    0.5796   -5.9783 H         1 ATP         0.4969
     34 HOA2        1.6578   -1.6789   -5.5579 H         1 ATP         0.4779
     35 H5'1        2.8428    0.3149   -2.6387 H         1 ATP         0.0280
     36 H5'2        1.2124   -0.0897   -2.0417 H         1 ATP         0.0280
     37 H4'         3.8049   -0.1388   -0.4009 H         1 ATP         0.2049
     38 H3'         1.6783   -1.7629    0.2715 H         1 ATP         0.1077
     39 HO3'        2.2232   -1.2979    2.3953 H         1 ATP         0.4255
     40 H2'        -0.0011    0.0027    0.0003 H         1 ATP         0.0584
     41 HO2'       -0.1563   -0.9855    2.0596 H         1 ATP         0.4149
     42 H1'         1.7826    1.9024    1.6451 H         1 ATP         0.1459
     43 H8         -0.1423    1.7373   -1.6999 H         1 ATP         0.2739
     44 HN61       -2.4811    5.8206   -1.3042 H         1 ATP         0.4605
     45 HN62       -2.5986    7.0863   -0.1113 H         1 ATP         0.4605
     46 H2          0.2128    5.7222    3.2871 H         1 ATP         0.0904
     47 H47        -1.5947    3.7835   -1.9255 H         1 ATP         0.5017
@<TRIPOS>BOND
     1    1    2 2
     2    1    3 1
     3    1    4 1
     4    1    8 1
     5    4   32 1
     6    5    6 2
     7    5    7 1
     8    5    8 1
     9    5   12 1
    10    7   33 1
    11    9   10 2
    12    9   11 1
    13    9   12 1
    14    9   13 1
    15   11   34 1
    16   13   14 1
    17   14   15 1
    18   14   35 1
    19   14   36 1
    20   15   16 1
    21   15   17 1
    22   15   37 1
    23   16   21 1
    24   17   18 1
    25   17   19 1
    26   17   38 1
    27   18   39 1
    28   19   20 1
    29   19   21 1
    30   19   40 1
    31   20   41 1
    32   21   22 1
    33   21   42 1
    34   22   23 ar
    35   22   31 ar
    36   23   24 ar
    37   23   43 1
    38   24   25 ar
    39   24   47 1
    40   25   26 ar
    41   25   31 ar
    42   26   27 1
    43   26   28 ar
    44   27   44 1
    45   27   45 1
    46   28   29 ar
    47   29   30 ar
    48   29   46 1
    49   30   31 ar
@<TRIPOS>SUBSTRUCTURE
     1 ATP         1 GROUP 0 A     ****
@<TRIPOS>MOLECULE
[[[5-(6-amino-7,8-dihydropurin-8-ylium-9-yl)-3,4-dihydroxy-tetrahydrofuran-2-yl]methoxy-hydroxy-phosphoryl]oxy-hydroxy-phosphoryl] hydrogen phosphate
   47    49     1     0     0
SMALL
USER_CHARGES

@<TRIPOS>ATOM
      1 PG         -2.7328   -4.5559    6.2985 P.3       1 ATP         1.5449
      2 O1G        -2.1982   -3.6593    5.2037 O.co2     1 ATP        -0.8177
      3 O2G        -1.8086   -5.1273    7.3507 O.co2     1 ATP        -0.8177
      4 O3G        -3.9579   -3.7797    7.0484 O.3       1 ATP        -0.7779
      5 PB         -4.3043   -5.9021    4.1780 P.3       1 ATP         1.9141
      6 O1B        -4.9838   -7.2156    3.9250 O.2       1 ATP        -0.8754
      7 O2B        -5.2755   -4.6112    4.1164 O.3       1 ATP        -0.8083
      8 O3B        -3.5739   -5.7718    5.6131 O.3       1 ATP        -0.8025
      9 PA         -1.7115   -6.2808    2.8231 P.3       1 ATP         1.8015
     10 O1A        -1.8458   -7.6751    2.2829 O.2       1 ATP        -0.8201
     11 O2A        -0.8701   -6.1798    4.2014 O.3       1 ATP        -0.8103
     12 O3A        -3.1038   -5.5348    3.1621 O.3       1 ATP        -0.8038
     13 O5'        -0.9730   -5.2421    1.8245 O.3       1 ATP        -0.5730
     14 C5'        -0.7840   -3.8935    2.2172 C.3       1 ATP         0.1929
     15 C4'        -0.0724   -3.1466    1.1027 C.3       1 ATP         0.1044
     16 O4'        -0.8674   -3.1929   -0.0945 O.3       1 ATP        -0.4079
     17 C3'         0.1338   -1.6715    1.4027 C.3       1 ATP         0.1439
     18 O3'         1.2893   -1.4445    2.1808 O.3       1 ATP        -0.5593
     19 C2'         0.2158   -1.0724    0.0128 C.3       1 ATP         0.0644
     20 O2'         1.5141   -1.2448   -0.5513 O.3       1 ATP        -0.5595
     21 C1'        -0.7897   -1.9176   -0.7583 C.3       1 ATP         0.3792
     22 N9         -2.1040   -1.3333   -0.7704 N.pl3     1 ATP        -0.5557
     23 C8         -3.0822   -1.4850    0.1102 C.ar      1 ATP         0.2849
     24 N7         -4.1844   -0.7999   -0.1888 N.pl3     1 ATP        -0.5117
     25 C5         -3.8875   -0.1651   -1.3445 C.ar      1 ATP        -0.2787
     26 C6         -4.5941    0.6799   -2.1486 C.ar      1 ATP         0.7736
     27 N6         -5.9138    1.0274   -1.7939 N.pl3     1 ATP        -0.9480
     28 N1         -4.0421    1.1824   -3.2748 N.ar      1 ATP        -0.7442
     29 C2         -2.7637    0.7937   -3.5405 C.ar      1 ATP         0.7202
     30 N3         -1.9788   -0.0343   -2.8140 N.ar      1 ATP        -0.6957
     31 C4         -2.5915   -0.4902   -1.7174 C.ar      1 ATP         0.6231
     32 HOG3       -4.4142   -4.2330    7.7890 H         1 ATP         0.4452
     33 HOB2       -6.0321   -4.5563    4.7382 H         1 ATP         0.4969
     34 HOA2       -1.1920   -6.6660    4.9901 H         1 ATP         0.4779
     35 H5'1       -1.7611   -3.4417    2.4168 H         1 ATP         0.0280
     36 H5'2       -0.1868   -3.8713    3.1345 H         1 ATP         0.0280
     37 H4'         0.8886   -3.6448    0.8780 H         1 ATP         0.2049
     38 H3'        -0.7373   -1.2358    1.9870 H         1 ATP         0.1077
     39 HO3'        1.1626   -1.9325    3.0084 H         1 ATP         0.4255
     40 H2'        -0.0384   -0.0310    0.0096 H         1 ATP         0.0584
     41 HO2'        2.1463   -0.7958    0.0370 H         1 ATP         0.4149
     42 H1'        -0.4769   -2.1002   -1.8093 H         1 ATP         0.1459
     43 H8         -3.0031   -2.1011    0.9891 H         1 ATP         0.2739
     44 HN61       -6.3271    0.6117   -0.9836 H         1 ATP         0.4605
     45 HN62       -6.4471    1.6092   -2.4083 H         1 ATP         0.4605
     46 H2         -2.3243    1.1986   -4.4449 H         1 ATP         0.0904
     47 H47        -5.0436   -0.7722    0.3425 H         1 ATP         0.5017
@<TRIPOS>BOND
     1    1    2 2
     2    1    3 1
     3    1    4 1
     4    1    8 1
     5    4   32 1
     6    5    6 2
     7    5    7 1
     8    5    8 1
     9    5   12 1
    10    7   33 1
    11    9   10 2
    12    9   11 1
    13    9   12 1
    14    9   13 1
    15   11   34 1
    16   13   14 1
    17   14   15 1
    18   14   35 1
    19   14   36 1
    20   15   16 1
    21   15   17 1
    22   15   37 1
    23   16   21 1
    24   17   18 1
    25   17   19 1
    26   17   38 1
    27   18   39 1
    28   19   20 1
    29   19   21 1
    30   19   40 1
    31   20   41 1
    32   21   22 1
    33   21   42 1
    34   22   23 ar
    35   22   31 ar
    36   23   24 ar
    37   23   43 1
    38   24   25 ar
    39   24   47 1
    40   25   26 ar
    41   25   31 ar
    42   26   27 1
    43   26   28 ar
    44   27   44 1
    45   27   45 1
    46   28   29 ar
    47   29   30 ar
    48   29   46 1
    49   30   31 ar
@<TRIPOS>SUBSTRUCTURE
     1 ATP         1 GROUP 0 A     ****
@<TRIPOS>MOLECULE
[[[5-(6-amino-7,8-dihydropurin-8-ylium-9-yl)-3,4-dihydroxy-tetrahydrofuran-2-yl]methoxy-hydroxy-phosphoryl]oxy-hydroxy-phosphoryl] hydrogen phosphate
   47    49     1     0     0
SMALL
USER_CHARGES

@<TRIPOS>ATOM
      1 PG          2.0657    4.3867   -6.3508 P.3       1 ATP         1.5449
      2 O1G         2.5511    5.3311   -5.2736 O.co2     1 ATP        -0.8177
      3 O2G         0.7567    4.6366   -7.0663 O.co2     1 ATP        -0.8177
      4 O3G         3.2463    4.2271   -7.4672 O.3       1 ATP        -0.7779
      5 PB          1.1809    2.1690   -4.5965 P.3       1 ATP         1.9141
      6 O1B         1.3018    2.7909   -3.2365 O.2       1 ATP        -0.8754
      7 O2B        -0.3165    2.1516   -5.2056 O.3       1 ATP        -0.8083
      8 O3B         2.0637    2.8704   -5.7535 O.3       1 ATP        -0.8025
      9 PA          3.0863   -0.0757   -4.4171 P.3       1 ATP         1.8015
     10 O1A         4.2268    0.4190   -5.2587 O.2       1 ATP        -0.8201
     11 O2A         2.7768   -1.6555   -4.5790 O.3       1 ATP        -0.8103
     12 O3A         1.6615    0.6308   -4.7014 O.3       1 ATP        -0.8038
     13 O5'         3.2874    0.1332   -2.8242 O.3       1 ATP        -0.5730
     14 C5'         2.2816   -0.2918   -1.9206 C.3       1 ATP         0.1929
     15 C4'         2.7248    0.0226   -0.4980 C.3       1 ATP         0.1044
     16 O4'         2.4697    1.4219   -0.2462 O.3       1 ATP        -0.4079
     17 C3'         1.9404   -0.7419    0.5596 C.3       1 ATP         0.1439
     18 O3'         2.7418   -0.8086    1.7389 O.3       1 ATP        -0.5593
     19 C2'         0.7477    0.1630    0.7858 C.3       1 ATP         0.0644
     20 O2'         0.1373   -0.0577    2.0407 O.3       1 ATP        -0.5595
     21 C1'         1.3733    1.5427    0.6747 C.3       1 ATP         0.3792
     22 N9          0.4520    2.5240    0.1767 N.pl3     1 ATP        -0.5557
     23 C8         -0.2172    2.5216   -0.9668 C.ar      1 ATP         0.2849
     24 N7         -1.0011    3.5855   -1.1321 N.pl3     1 ATP        -0.5117
     25 C5         -0.8184    4.3200   -0.0123 C.ar      1 ATP        -0.2787
     26 C6         -1.3349    5.5079    0.4144 C.ar      1 ATP         0.7736
     27 N6         -2.2567    6.1930   -0.4036 N.pl3     1 ATP        -0.9480
     28 N1         -0.9716    6.0291    1.6069 N.ar      1 ATP        -0.7442
     29 C2         -0.0765    5.3009    2.3312 C.ar      1 ATP         0.7202
     30 N3          0.4933    4.1191    2.0023 N.ar      1 ATP        -0.6957
     31 C4          0.0865    3.6675    0.8123 C.ar      1 ATP         0.6231
     32 HOG3        3.0846    3.6418   -8.2376 H         1 ATP         0.4452
     33 HOB2       -0.7824    3.0036   -5.3444 H         1 ATP         0.4969
     34 HOA2        3.4802   -2.3017   -4.3562 H         1 ATP         0.4779
     35 H5'1        1.3494    0.2323   -2.1552 H         1 ATP         0.0280
     36 H5'2        2.1260   -1.3686   -2.0436 H         1 ATP         0.0280
     37 H4'         3.8049   -0.1388   -0.4009 H         1 ATP         0.2049
     38 H3'         1.6783   -1.7629    0.2715 H         1 ATP         0.1077
     39 HO3'        3.5554   -1.2733    1.4914 H         1 ATP         0.4255
     40 H2'        -0.0011    0.0027    0.0003 H         1 ATP         0.0584
     41 HO2'       -0.1563   -0.9855    2.0596 H         1 ATP         0.4149
     42 H1'         1.7826    1.9024    1.6451 H         1 ATP         0.1459
     43 H8         -0.1423    1.7373   -1.6999 H         1 ATP         0.2739
     44 HN61       -2.4811    5.8206   -1.3042 H         1 ATP         0.4605
     45 HN62       -2.5986    7.0863   -0.1113 H         1 ATP         0.4605
     46 H2          0.2128    5.7222    3.2871 H         1 ATP         0.0904
     47 H47        -1.5947    3.7835   -1.9255 H         1 ATP         0.5017
@<TRIPOS>BOND
     1    1    2 2
     2    1    3 1
     3    1    4 1
     4    1    8 1
     5    4   32 1
     6    5    6 2
     7    5    7 1
     8    5    8 1
     9    5   12 1
    10    7   33 1
    11    9   10 2
    12    9   11 1
    13    9   12 1
    14    9   13 1
    15   11   34 1
    16   13   14 1
    17   14   15 1
    18   14   35 1
    19   14   36 1
    20   15   16 1
    21   15   17 1
    22   15   37 1
    23   16   21 1
    24   17   18 1
    25   17   19 1
    26   17   38 1
    27   18   39 1
    28   19   20 1
    29   19   21 1
    30   19   40 1
    31   20   41 1
    32   21   22 1
    33   21   42 1
    34   22   23 ar
    35   22   31 ar
    36   23   24 ar
    37   23   43 1
    38   24   25 ar
    39   24   47 1
    40   25   26 ar
    41   25   31 ar
    42   26   27 1
    43   26   28 ar
    44   27   44 1
    45   27   45 1
    46   28   29 ar
    47   29   30 ar
    48   29   46 1
    49   30   31 ar
@<TRIPOS>SUBSTRUCTURE
     1 ATP         1 GROUP 0 A     ****
@<TRIPOS>MOLECULE
[[[5-(6-amino-7,8-dihydropurin-8-ylium-9-yl)-3,4-dihydroxy-tetrahydrofuran-2-yl]methoxy-hydroxy-phosphoryl]oxy-hydroxy-phosphoryl] hydrogen phosphate
   47    49     1     0     0
SMALL
USER_CHARGES

@<TRIPOS>ATOM
      1 PG         -2.0324   -1.1744   -6.3936 P.3       1 ATP         1.5449
      2 O1G        -2.3696   -2.4889   -7.0618 O.co2     1 ATP        -0.8177
      3 O2G        -1.9311    0.1004   -7.2015 O.co2     1 ATP        -0.8177
      4 O3G        -3.0863   -0.9324   -5.1703 O.3       1 ATP        -0.7779
      5 PB          0.8617   -1.6483   -5.9723 P.3       1 ATP         1.9141
      6 O1B         1.0766   -2.9184   -6.7415 O.2       1 ATP        -0.8754
      7 O2B         1.2977   -0.3000   -6.7505 O.3       1 ATP        -0.8083
      8 O3B        -0.6652   -1.3647   -5.5275 O.3       1 ATP        -0.8025
      9 PA          1.5750   -2.4636   -3.2285 P.3       1 ATP         1.8015
     10 O1A         1.9420   -3.9067   -3.4205 O.2       1 ATP        -0.8201
     11 O2A         0.0757   -2.2276   -2.6680 O.3       1 ATP        -0.8103
     12 O3A         1.6402   -1.5518   -4.5606 O.3       1 ATP        -0.8038
     13 O5'         2.5233   -1.6623   -2.1893 O.3       1 ATP        -0.5730
     14 C5'         2.2816   -0.2918   -1.9206 C.3       1 ATP         0.1929
     15 C4'         2.7248    0.0226   -0.4980 C.3       1 ATP         0.1044
     16 O4'         2.4697    1.4219   -0.2462 O.3       1 ATP        -0.4079
     17 C3'         1.9404   -0.7419    0.5596 C.3       1 ATP         0.1439
     18 O3'         2.7418   -0.8086    1.7389 O.3       1 ATP        -0.5593
     19 C2'         0.7477    0.1630    0.7858 C.3       1 ATP         0.0644
     20 O2'         0.1373   -0.0577    2.0407 O.3       1 ATP        -0.5595
     21 C1'         1.3733    1.5427    0.6747 C.3       1 ATP         0.3792
     22 N9          0.4520    2.5240    0.1767 N.pl3     1 ATP        -0.5557
     23 C8         -0.3477    3.3274    0.8626 C.ar      1 ATP         0.2849
     24 N7         -1.0836    4.1323    0.0983 N.pl3     1 ATP        -0.5117
     25 C5         -0.7273    3.8194   -1.1674 C.ar      1 ATP        -0.2787
     26 C6         -1.1208    4.2877   -2.3863 C.ar      1 ATP         0.7736
     27 N6         -2.0932    5.3066   -2.4528 N.pl3     1 ATP        -0.9480
     28 N1         -0.5892    3.7853   -3.5223 N.ar      1 ATP        -0.7442
     29 C2          0.3427    2.8040   -3.3648 C.ar      1 ATP         0.7202
     30 N3          0.8012    2.2709   -2.2093 N.ar      1 ATP        -0.6957
     31 C4          0.2307    2.8167   -1.1312 C.ar      1 ATP         0.6231
     32 HOG3       -2.9997   -0.1157   -4.6339 H         1 ATP         0.4452
     33 HOB2        0.8630   -0.0819   -7.6022 H         1 ATP         0.4969
     34 HOA2       -0.6842   -2.5554   -3.1944 H         1 ATP         0.4779
     35 H5'1        2.8428    0.3149   -2.6387 H         1 ATP         0.0280
     36 H5'2        1.2124   -0.0897   -2.0417 H         1 ATP         0.0280
     37 H4'         3.8049   -0.1388   -0.4009 H         1 ATP         0.2049
     38 H3'         1.6783   -1.7629    0.2715 H         1 ATP         0.1077
     39 HO3'        2.2232   -1.2979    2.3953 H         1 ATP         0.4255
     40 H2'        -0.0011    0.0027    0.0003 H         1 ATP         0.0584
     41 HO2'       -0.6141    0.5574    2.1082 H         1 ATP         0.4149
     42 H1'         1.7826    1.9024    1.6451 H         1 ATP         0.1459
     43 H8         -0.4040    3.3373    1.9373 H         1 ATP         0.2739
     44 HN61       -2.5133    5.6366   -1.6073 H         1 ATP         0.4605
     45 HN62       -2.4153    5.6161   -3.3477 H         1 ATP         0.4605
     46 H2          0.7668    2.4032   -4.2782 H         1 ATP         0.0904
     47 H47        -1.7549    4.8194    0.4122 H         1 ATP         0.5017
@<TRIPOS>BOND
     1    1    2 2
     2    1    3 1
     3    1    4 1
     4    1    8 1
     5    4   32 1
     6    5    6 2
     7    5    7 1
     8    5    8 1
     9    5   12 1
    10    7   33 1
    11    9   10 2
    12    9   11 1
    13    9   12 1
    14    9   13 1
    15   11   34 1
    16   13   14 1
    17   14   15 1
    18   14   35 1
    19   14   36 1
    20   15   16 1
    21   15   17 1
    22   15   37 1
    23   16   21 1
    24   17   18 1
    25   17   19 1
    26   17   38 1
    27   18   39 1
    28   19   20 1
    29   19   21 1
    30   19   40 1
    31   20   41 1
    32   21   22 1
    33   21   42 1
    34   22   23 ar
    35   22   31 ar
    36   23   24 ar
    37   23   43 1
    38   24   25 ar
    39   24   47 1
    40   25   26 ar
    41   25   31 ar
    42   26   27 1
    43   26   28 ar
    44   27   44 1
    45   27   45 1
    46   28   29 ar
    47   29   30 ar
    48   29   46 1
    49   30   31 ar
@<TRIPOS>SUBSTRUCTURE
     1 ATP         1 GROUP 0 A     ****
@<TRIPOS>MOLECULE
[[[5-(6-amino-7,8-dihydropurin-8-ylium-9-yl)-3,4-dihydroxy-tetrahydrofuran-2-yl]methoxy-hydroxy-phosphoryl]oxy-hydroxy-phosphoryl] hydrogen phosphate
   47    49     1     0     0
SMALL
USER_CHARGES

@<TRIPOS>ATOM
      1 PG         -1.0024    1.5680   -4.5912 P.3       1 ATP         1.5449
      2 O1G        -0.4502    1.2749   -3.2138 O.co2     1 ATP        -0.8177
      3 O2G        -1.6565    0.4777   -5.4105 O.co2     1 ATP        -0.8177
      4 O3G        -2.0392    2.8239   -4.4746 O.3       1 ATP        -0.7779
      5 PB          1.4877    3.1024   -5.0640 P.3       1 ATP         1.9141
      6 O1B         2.3202    3.5961   -6.2103 O.2       1 ATP        -0.8754
      7 O2B         0.9292    4.2586   -4.0817 O.3       1 ATP        -0.8083
      8 O3B         0.1651    2.2744   -5.4822 O.3       1 ATP        -0.8025
      9 PA          2.8849    0.6141   -4.3169 P.3       1 ATP         1.8015
     10 O1A         4.0138    0.5846   -5.3061 O.2       1 ATP        -0.8201
     11 O2A         1.6272   -0.3226   -4.7151 O.3       1 ATP        -0.8103
     12 O3A         2.2239    2.0669   -4.0670 O.3       1 ATP        -0.8038
     13 O5'         3.2874    0.1332   -2.8242 O.3       1 ATP        -0.5730
     14 C5'         2.2816   -0.2918   -1.9206 C.3       1 ATP         0.1929
     15 C4'         2.7248    0.0226   -0.4980 C.3       1 ATP         0.1044
     16 O4'         2.4697    1.4219   -0.2462 O.3       1 ATP        -0.4079
     17 C3'         1.9404   -0.7419    0.5596 C.3       1 ATP         0.1439
     18 O3'         2.7418   -0.8086    1.7389 O.3       1 ATP        -0.5593
     19 C2'         0.7477    0.1630    0.7858 C.3       1 ATP         0.0644
     20 O2'         0.1373   -0.0577    2.0407 O.3       1 ATP        -0.5595
     21 C1'         1.3733    1.5427    0.6747 C.3       1 ATP         0.3792
     22 N9          0.4520    2.5240    0.1767 N.pl3     1 ATP        -0.5557
     23 C8          0.5305    3.2394   -0.9358 C.ar      1 ATP         0.2849
     24 N7         -0.4966    4.0680   -1.1145 N.pl3     1 ATP        -0.5117
     25 C5         -1.2879    3.8664   -0.0375 C.ar      1 ATP        -0.2787
     26 C6         -2.4754    4.4084    0.3577 C.ar      1 ATP         0.7736
     27 N6         -3.0892    5.3882   -0.4495 N.pl3     1 ATP        -0.9480
     28 N1         -3.0632    4.0158    1.5092 N.ar      1 ATP        -0.7442
     29 C2         -2.4008    3.0654    2.2262 C.ar      1 ATP         0.7202
     30 N3         -1.2259    2.4663    1.9260 N.ar      1 ATP        -0.6957
     31 C4         -0.7062    2.9047    0.7757 C.ar      1 ATP         0.6231
     32 HOG3       -2.4853    3.1384   -5.2896 H         1 ATP         0.4452
     33 HOB2        0.3474    4.9560   -4.4522 H         1 ATP         0.4969
     34 HOA2        1.1551   -0.1496   -5.5573 H         1 ATP         0.4779
     35 H5'1        1.3494    0.2323   -2.1552 H         1 ATP         0.0280
     36 H5'2        2.1260   -1.3686   -2.0436 H         1 ATP         0.0280
     37 H4'         3.8049   -0.1388   -0.4009 H         1 ATP         0.2049
     38 H3'         1.6783   -1.7629    0.2715 H         1 ATP         0.1077
     39 HO3'        2.2232   -1.2979    2.3953 H         1 ATP         0.4255
     40 H2'        -0.0011    0.0027    0.0003 H         1 ATP         0.0584
     41 HO2'       -0.1563   -0.9855    2.0596 H         1 ATP         0.4149
     42 H1'         1.7826    1.9024    1.6451 H         1 ATP         0.1459
     43 H8          1.3437    3.1645   -1.6367 H         1 ATP         0.2739
     44 HN61       -3.9824    5.7507   -0.1831 H         1 ATP         0.4605
     45 HN62       -2.6676    5.6358   -1.3220 H         1 ATP         0.4605
     46 H2         -2.8752    2.7532    3.1495 H         1 ATP         0.0904
     47 H47        -0.6372    4.7004   -1.8900 H         1 ATP         0.5017
@<TRIPOS>BOND
     1    1    2 2
     2    1    3 1
     3    1    4 1
     4    1    8 1
     5    4   32 1
     6    5    6 2
     7    5    7 1
     8    5    8 1
     9    5   12 1
    10    7   33 1
    11    9   10 2
    12    9   11 1
    13    9   12 1
    14    9   13 1
    15   11   34 1
    16   13   14 1
    17   14   15 1
    18   14   35 1
    19   14   36 1
    20   15   16 1
    21   15   17 1
    22   15   37 1
    23   16   21 1
    24   17   18 1
    25   17   19 1
    26   17   38 1
    27   18   39 1
    28   19   20 1
    29   19   21 1
    30   19   40 1
    31   20   41 1
    32   21   22 1
    33   21   42 1
    34   22   23 ar
    35   22   31 ar
    36   23   24 ar
    37   23   43 1
    38   24   25 ar
    39   24   47 1
    40   25   26 ar
    41   25   31 ar
    42   26   27 1
    43   26   28 ar
    44   27   44 1
    45   27   45 1
    46   28   29 ar
    47   29   30 ar
    48   29   46 1
    49   30   31 ar
@<TRIPOS>SUBSTRUCTURE
     1 ATP         1 GROUP 0 A     ****
@<TRIPOS>MOLECULE
[[[5-(6-amino-7,8-dihydropurin-8-ylium-9-yl)-3,4-dihydroxy-tetrahydrofuran-2-yl]methoxy-hydroxy-phosphoryl]oxy-hydroxy-phosphoryl] hydrogen phosphate
   47    49     1     0     0
SMALL
USER_CHARGES

@<TRIPOS>ATOM
      1 PG          4.1982   -3.0925   -7.4020 P.3       1 ATP         1.5449
      2 O1G         4.5312   -4.5571   -7.2234 O.co2     1 ATP        -0.8177
      3 O2G         5.2959   -2.0599   -7.5318 O.co2     1 ATP        -0.8177
      4 O3G         3.1913   -2.9444   -8.6786 O.3       1 ATP        -0.7779
      5 PB          2.8535   -1.1960   -5.5653 P.3       1 ATP         1.9141
      6 O1B         4.0244   -0.4969   -4.9398 O.2       1 ATP        -0.8754
      7 O2B         2.1390   -0.3836   -6.7666 O.3       1 ATP        -0.8083
      8 O3B         3.1808   -2.6396   -6.2122 O.3       1 ATP        -0.8025
      9 PA          1.5750   -2.4636   -3.2285 P.3       1 ATP         1.8015
     10 O1A         1.9420   -3.9067   -3.4205 O.2       1 ATP        -0.8201
     11 O2A         0.0757   -2.2276   -2.6680 O.3       1 ATP        -0.8103
     12 O3A         1.6402   -1.5518   -4.5606 O.3       1 ATP        -0.8038
     13 O5'         2.5233   -1.6623   -2.1893 O.3       1 ATP        -0.5730
     14 C5'         2.2816   -0.2918   -1.9206 C.3       1 ATP         0.1929
     15 C4'         2.7248    0.0226   -0.4980 C.3       1 ATP         0.1044
     16 O4'         2.4697    1.4219   -0.2462 O.3       1 ATP        -0.4079
     17 C3'         1.9404   -0.7419    0.5596 C.3       1 ATP         0.1439
     18 O3'         2.7418   -0.8086    1.7389 O.3       1 ATP        -0.5593
     19 C2'         0.7477    0.1630    0.7858 C.3       1 ATP         0.0644
     20 O2'         0.1373   -0.0577    2.0407 O.3       1 ATP        -0.5595
     21 C1'         1.3733    1.5427    0.6747 C.3       1 ATP         0.3792
     22 N9          0.4520    2.5240    0.1767 N.pl3     1 ATP        -0.5557
     23 C8          0.5305    3.2394   -0.9358 C.ar      1 ATP         0.2849
     24 N7         -0.4966    4.0680   -1.1145 N.pl3     1 ATP        -0.5117
     25 C5         -1.2879    3.8664   -0.0375 C.ar      1 ATP        -0.2787
     26 C6         -2.4754    4.4084    0.3577 C.ar      1 ATP         0.7736
     27 N6         -3.0892    5.3882   -0.4495 N.pl3     1 ATP        -0.9480
     28 N1         -3.0632    4.0158    1.5092 N.ar      1 ATP        -0.7442
     29 C2         -2.4008    3.0654    2.2262 C.ar      1 ATP         0.7202
     30 N3         -1.2259    2.4663    1.9260 N.ar      1 ATP        -0.6957
     31 C4         -0.7062    2.9047    0.7757 C.ar      1 ATP         0.6231
     32 HOG3        2.8802   -2.0478   -8.9265 H         1 ATP         0.4452
     33 HOB2        2.6658   -0.1489   -7.5600 H         1 ATP         0.4969
     34 HOA2       -0.1714   -2.6105   -1.7994 H         1 ATP         0.4779
     35 H5'1        2.8428    0.3149   -2.6387 H         1 ATP         0.0280
     36 H5'2        1.2124   -0.0897   -2.0417 H         1 ATP         0.0280
     37 H4'         3.8049   -0.1388   -0.4009 H         1 ATP         0.2049
     38 H3'         1.6783   -1.7629    0.2715 H         1 ATP         0.1077
     39 HO3'        3.5554   -1.2733    1.4914 H         1 ATP         0.4255
     40 H2'        -0.0011    0.0027    0.0003 H         1 ATP         0.0584
     41 HO2'       -0.1563   -0.9855    2.0596 H         1 ATP         0.4149
     42 H1'         1.7826    1.9024    1.6451 H         1 ATP         0.1459
     43 H8          1.3437    3.1645   -1.6367 H         1 ATP         0.2739
     44 HN61       -2.6210    5.7042   -1.2748 H         1 ATP         0.4605
     45 HN62       -3.9356    5.8187   -0.1356 H         1 ATP         0.4605
     46 H2         -2.8752    2.7532    3.1495 H         1 ATP         0.0904
     47 H47        -0.6372    4.7004   -1.8900 H         1 ATP         0.5017
@<TRIPOS>BOND
     1    1    2 2
     2    1    3 1
     3    1    4 1
     4    1    8 1
     5    4   32 1
     6    5    6 2
     7    5    7 1
     8    5    8 1
     9    5   12 1
    10    7   33 1
    11    9   10 2
    12    9   11 1
    13    9   12 1
    14    9   13 1
    15   11   34 1
    16   13   14 1
    17   14   15 1
    18   14   35 1
    19   14   36 1
    20   15   16 1
    21   15   17 1
    22   15   37 1
    23   16   21 1
    24   17   18 1
    25   17   19 1
    26   17   38 1
    27   18   39 1
    28   19   20 1
    29   19   21 1
    30   19   40 1
    31   20   41 1
    32   21   22 1
    33   21   42 1
    34   22   23 ar
    35   22   31 ar
    36   23   24 ar
    37   23   43 1
    38   24   25 ar
    39   24   47 1
    40   25   26 ar
    41   25   31 ar
    42   26   27 1
    43   26   28 ar
    44   27   44 1
    45   27   45 1
    46   28   29 ar
    47   29   30 ar
    48   29   46 1
    49   30   31 ar
@<TRIPOS>SUBSTRUCTURE
     1 ATP         1 GROUP 0 A     ****
@<TRIPOS>MOLECULE
[[[5-(6-amino-7,8-dihydropurin-8-ylium-9-yl)-3,4-dihydroxy-tetrahydrofuran-2-yl]methoxy-hydroxy-phosphoryl]oxy-hydroxy-phosphoryl] hydrogen phosphate
   47    49     1     0     0
SMALL
USER_CHARGES

@<TRIPOS>ATOM
      1 PG          1.8954   -3.7240   -4.9147 P.3       1 ATP         1.5449
      2 O1G         1.5141   -3.0244   -3.6289 O.co2     1 ATP        -0.8177
      3 O2G         3.0903   -4.6500   -4.9665 O.co2     1 ATP        -0.8177
      4 O3G         0.5887   -4.5297   -5.4705 O.3       1 ATP        -0.7779
      5 PB          1.4097   -1.1283   -6.2579 P.3       1 ATP         1.9141
      6 O1B         1.7913   -0.4099   -7.5186 O.2       1 ATP        -0.8754
      7 O2B        -0.1787   -1.3532   -6.0578 O.3       1 ATP        -0.8083
      8 O3B         2.0362   -2.6083   -6.0941 O.3       1 ATP        -0.8025
      9 PA          3.3392   -0.0290   -4.3163 P.3       1 ATP         1.8015
     10 O1A         4.1272    0.9231   -5.1687 O.2       1 ATP        -0.8201
     11 O2A         4.0576   -1.4591   -4.0783 O.3       1 ATP        -0.8103
     12 O3A         1.8781   -0.4177   -4.8854 O.3       1 ATP        -0.8038
     13 O5'         3.0190    0.5130   -2.8246 O.3       1 ATP        -0.5730
     14 C5'         2.2816   -0.2918   -1.9206 C.3       1 ATP         0.1929
     15 C4'         2.7248    0.0226   -0.4980 C.3       1 ATP         0.1044
     16 O4'         2.4697    1.4219   -0.2462 O.3       1 ATP        -0.4079
     17 C3'         1.9404   -0.7419    0.5596 C.3       1 ATP         0.1439
     18 O3'         2.7418   -0.8086    1.7389 O.3       1 ATP        -0.5593
     19 C2'         0.7477    0.1630    0.7858 C.3       1 ATP         0.0644
     20 O2'         0.1373   -0.0577    2.0407 O.3       1 ATP        -0.5595
     21 C1'         1.3733    1.5427    0.6747 C.3       1 ATP         0.3792
     22 N9          0.4520    2.5240    0.1767 N.pl3     1 ATP        -0.5557
     23 C8         -0.2172    2.5216   -0.9668 C.ar      1 ATP         0.2849
     24 N7         -1.0011    3.5855   -1.1321 N.pl3     1 ATP        -0.5117
     25 C5         -0.8184    4.3200   -0.0123 C.ar      1 ATP        -0.2787
     26 C6         -1.3349    5.5079    0.4144 C.ar      1 ATP         0.7736
     27 N6         -2.2567    6.1930   -0.4036 N.pl3     1 ATP        -0.9480
     28 N1         -0.9716    6.0291    1.6069 N.ar      1 ATP        -0.7442
     29 C2         -0.0765    5.3009    2.3312 C.ar      1 ATP         0.7202
     30 N3          0.4933    4.1191    2.0023 N.ar      1 ATP        -0.6957
     31 C4          0.0865    3.6675    0.8123 C.ar      1 ATP         0.6231
     32 HOG3        0.6739   -5.0389   -6.3045 H         1 ATP         0.4452
     33 HOB2       -0.6730   -1.8710   -6.7283 H         1 ATP         0.4969
     34 HOA2        4.9345   -1.4819   -3.6394 H         1 ATP         0.4779
     35 H5'1        1.2149   -0.0786   -2.0446 H         1 ATP         0.0280
     36 H5'2        2.4641   -1.3459   -2.1539 H         1 ATP         0.0280
     37 H4'         3.8049   -0.1388   -0.4009 H         1 ATP         0.2049
     38 H3'         1.6783   -1.7629    0.2715 H         1 ATP         0.1077
     39 HO3'        2.2232   -1.2979    2.3953 H         1 ATP         0.4255
     40 H2'        -0.0011    0.0027    0.0003 H         1 ATP         0.0584
     41 HO2'       -0.6141    0.5574    2.1082 H         1 ATP         0.4149
     42 H1'         1.7826    1.9024    1.6451 H         1 ATP         0.1459
     43 H8         -0.1423    1.7373   -1.6999 H         1 ATP         0.2739
     44 HN61       -2.4811    5.8206   -1.3042 H         1 ATP         0.4605
     45 HN62       -2.5986    7.0863   -0.1113 H         1 ATP         0.4605
     46 H2          0.2128    5.7222    3.2871 H         1 ATP         0.0904
     47 H47        -1.5947    3.7835   -1.9255 H         1 ATP         0.5017
@<TRIPOS>BOND
     1    1    2 2
     2    1    3 1
     3    1    4 1
     4    1    8 1
     5    4   32 1
     6    5    6 2
     7    5    7 1
     8    5    8 1
     9    5   12 1
    10    7   33 1
    11    9   10 2
    12    9   11 1
    13    9   12 1
    14    9   13 1
    15   11   34 1
    16   13   14 1
    17   14   15 1
    18   14   35 1
    19   14   36 1
    20   15   16 1
    21   15   17 1
    22   15   37 1
    23   16   21 1
    24   17   18 1
    25   17   19 1
    26   17   38 1
    27   18   39 1
    28   19   20 1
    29   19   21 1
    30   19   40 1
    31   20   41 1
    32   21   22 1
    33   21   42 1
    34   22   23 ar
    35   22   31 ar
    36   23   24 ar
    37   23   43 1
    38   24   25 ar
    39   24   47 1
    40   25   26 ar
    41   25   31 ar
    42   26   27 1
    43   26   28 ar
    44   27   44 1
    45   27   45 1
    46   28   29 ar
    47   29   30 ar
    48   29   46 1
    49   30   31 ar
@<TRIPOS>SUBSTRUCTURE
     1 ATP         1 GROUP 0 A     ****
@<TRIPOS>MOLECULE
[[[5-(6-amino-7,8-dihydropurin-8-ylium-9-yl)-3,4-dihydroxy-tetrahydrofuran-2-yl]methoxy-hydroxy-phosphoryl]oxy-hydroxy-phosphoryl] hydrogen phosphate
   47    49     1     0     0
SMALL
USER_CHARGES

@<TRIPOS>ATOM
      1 PG          6.4191   -2.9593   -6.0833 P.3       1 ATP         1.5449
      2 O1G         7.4432   -2.9358   -4.9703 O.co2     1 ATP        -0.8177
      3 O2G         6.6811   -2.2453   -7.3907 O.co2     1 ATP        -0.8177
      4 O3G         6.0442   -4.5151   -6.4064 O.3       1 ATP        -0.7779
      5 PB          4.4913   -1.0337   -4.9198 P.3       1 ATP         1.9141
      6 O1B         5.2556   -0.5156   -3.7373 O.2       1 ATP        -0.8754
      7 O2B         4.5147   -0.0719   -6.2191 O.3       1 ATP        -0.8083
      8 O3B         4.9866   -2.4637   -5.4850 O.3       1 ATP        -0.8025
      9 PA          2.1471   -2.2827   -3.6367 P.3       1 ATP         1.8015
     10 O1A         2.4550   -3.7444   -3.7865 O.2       1 ATP        -0.8201
     11 O2A         0.5865   -1.9075   -3.8410 O.3       1 ATP        -0.8103
     12 O3A         2.9198   -1.3056   -4.6653 O.3       1 ATP        -0.8038
     13 O5'         2.5233   -1.6623   -2.1893 O.3       1 ATP        -0.5730
     14 C5'         2.2816   -0.2918   -1.9206 C.3       1 ATP         0.1929
     15 C4'         2.7248    0.0226   -0.4980 C.3       1 ATP         0.1044
     16 O4'         2.4697    1.4219   -0.2462 O.3       1 ATP        -0.4079
     17 C3'         1.9404   -0.7419    0.5596 C.3       1 ATP         0.1439
     18 O3'         2.7418   -0.8086    1.7389 O.3       1 ATP        -0.5593
     19 C2'         0.7477    0.1630    0.7858 C.3       1 ATP         0.0644
     20 O2'         0.1373   -0.0577    2.0407 O.3       1 ATP        -0.5595
     21 C1'         1.3733    1.5427    0.6747 C.3       1 ATP         0.3792
     22 N9          0.4520    2.5240    0.1767 N.pl3     1 ATP        -0.5557
     23 C8         -0.3477    3.3274    0.8626 C.ar      1 ATP         0.2849
     24 N7         -1.0836    4.1323    0.0983 N.pl3     1 ATP        -0.5117
     25 C5         -0.7273    3.8194   -1.1674 C.ar      1 ATP        -0.2787
     26 C6         -1.1208    4.2877   -2.3863 C.ar      1 ATP         0.7736
     27 N6         -2.0932    5.3066   -2.4528 N.pl3     1 ATP        -0.9480
     28 N1         -0.5892    3.7853   -3.5223 N.ar      1 ATP        -0.7442
     29 C2          0.3427    2.8040   -3.3648 C.ar      1 ATP         0.7202
     30 N3          0.8012    2.2709   -2.2093 N.ar      1 ATP        -0.6957
     31 C4          0.2307    2.8167   -1.1312 C.ar      1 ATP         0.6231
     32 HOG3        5.3874   -4.7006   -7.1110 H         1 ATP         0.4452
     33 HOB2        5.3771    0.1473   -6.6318 H         1 ATP         0.4969
     34 HOA2       -0.0800   -2.3109   -3.2451 H         1 ATP         0.4779
     35 H5'1        2.8428    0.3149   -2.6387 H         1 ATP         0.0280
     36 H5'2        1.2124   -0.0897   -2.0417 H         1 ATP         0.0280
     37 H4'         3.8049   -0.1388   -0.4009 H         1 ATP         0.2049
     38 H3'         1.6783   -1.7629    0.2715 H         1 ATP         0.1077
     39 HO3'        2.2232   -1.2979    2.3953 H         1 ATP         0.4255
     40 H2'        -0.0011    0.0027    0.0003 H         1 ATP         0.0584
     41 HO2'       -0.6141    0.5574    2.1082 H         1 ATP         0.4149
     42 H1'         1.7826    1.9024    1.6451 H         1 ATP         0.1459
     43 H8         -0.4040    3.3373    1.9373 H         1 ATP         0.2739
     44 HN61       -2.5133    5.6366   -1.6073 H         1 ATP         0.4605
     45 HN62       -2.4153    5.6161   -3.3477 H         1 ATP         0.4605
     46 H2          0.7668    2.4032   -4.2782 H         1 ATP         0.0904
     47 H47        -1.7549    4.8194    0.4122 H         1 ATP         0.5017
@<TRIPOS>BOND
     1    1    2 2
     2    1    3 1
     3    1    4 1
     4    1    8 1
     5    4   32 1
     6    5    6 2
     7    5    7 1
     8    5    8 1
     9    5   12 1
    10    7   33 1
    11    9   10 2
    12    9   11 1
    13    9   12 1
    14    9   13 1
    15   11   34 1
    16   13   14 1
    17   14   15 1
    18   14   35 1
    19   14   36 1
    20   15   16 1
    21   15   17 1
    22   15   37 1
    23   16   21 1
    24   17   18 1
    25   17   19 1
    26   17   38 1
    27   18   39 1
    28   19   20 1
    29   19   21 1
    30   19   40 1
    31   20   41 1
    32   21   22 1
    33   21   42 1
    34   22   23 ar
    35   22   31 ar
    36   23   24 ar
    37   23   43 1
    38   24   25 ar
    39   24   47 1
    40   25   26 ar
    41   25   31 ar
    42   26   27 1
    43   26   28 ar
    44   27   44 1
    45   27   45 1
    46   28   29 ar
    47   29   30 ar
    48   29   46 1
    49   30   31 ar
@<TRIPOS>SUBSTRUCTURE
     1 ATP         1 GROUP 0 A     ****
@<TRIPOS>MOLECULE
[[[5-(6-amino-7,8-dihydropurin-8-ylium-9-yl)-3,4-dihydroxy-tetrahydrofuran-2-yl]methoxy-hydroxy-phosphoryl]oxy-hydroxy-phosphoryl] hydrogen phosphate
   47    49     1     0     0
SMALL
USER_CHARGES

@<TRIPOS>ATOM
      1 PG          0.4917    0.4528   -6.0601 P.3       1 ATP         1.5449
      2 O1G         0.5396    1.5611   -7.0885 O.co2     1 ATP        -0.8177
      3 O2G         0.8297    0.7267   -4.6114 O.co2     1 ATP        -0.8177
      4 O3G        -0.9808   -0.2494   -6.1268 O.3       1 ATP        -0.7779
      5 PB          2.9242   -1.2245   -6.2783 P.3       1 ATP         1.9141
      6 O1B         3.3940   -2.4620   -6.9847 O.2       1 ATP        -0.8754
      7 O2B         3.7811    0.1083   -6.5990 O.3       1 ATP        -0.8083
      8 O3B         1.3996   -0.7919   -6.5914 O.3       1 ATP        -0.8025
      9 PA          2.1471   -2.2827   -3.6367 P.3       1 ATP         1.8015
     10 O1A         2.4550   -3.7444   -3.7865 O.2       1 ATP        -0.8201
     11 O2A         0.5865   -1.9075   -3.8410 O.3       1 ATP        -0.8103
     12 O3A         2.9198   -1.3056   -4.6653 O.3       1 ATP        -0.8038
     13 O5'         2.5233   -1.6623   -2.1893 O.3       1 ATP        -0.5730
     14 C5'         2.2816   -0.2918   -1.9206 C.3       1 ATP         0.1929
     15 C4'         2.7248    0.0226   -0.4980 C.3       1 ATP         0.1044
     16 O4'         2.4697    1.4219   -0.2462 O.3       1 ATP        -0.4079
     17 C3'         1.9404   -0.7419    0.5596 C.3       1 ATP         0.1439
     18 O3'         2.7418   -0.8086    1.7389 O.3       1 ATP        -0.5593
     19 C2'         0.7477    0.1630    0.7858 C.3       1 ATP         0.0644
     20 O2'         0.1373   -0.0577    2.0407 O.3       1 ATP        -0.5595
     21 C1'         1.3733    1.5427    0.6747 C.3       1 ATP         0.3792
     22 N9          0.4520    2.5240    0.1767 N.pl3     1 ATP        -0.5557
     23 C8         -0.2172    2.5216   -0.9668 C.ar      1 ATP         0.2849
     24 N7         -1.0011    3.5855   -1.1321 N.pl3     1 ATP        -0.5117
     25 C5         -0.8184    4.3200   -0.0123 C.ar      1 ATP        -0.2787
     26 C6         -1.3349    5.5079    0.4144 C.ar      1 ATP         0.7736
     27 N6         -2.2567    6.1930   -0.4036 N.pl3     1 ATP        -0.9480
     28 N1         -0.9716    6.0291    1.6069 N.ar      1 ATP        -0.7442
     29 C2         -0.0765    5.3009    2.3312 C.ar      1 ATP         0.7202
     30 N3          0.4933    4.1191    2.0023 N.ar      1 ATP        -0.6957
     31 C4          0.0865    3.6675    0.8123 C.ar      1 ATP         0.6231
     32 HOG3       -1.1718   -0.9928   -5.5161 H         1 ATP         0.4452
     33 HOB2        3.8342    0.4270   -7.5251 H         1 ATP         0.4969
     34 HOA2       -0.0800   -2.3109   -3.2451 H         1 ATP         0.4779
     35 H5'1        2.8428    0.3149   -2.6387 H         1 ATP         0.0280
     36 H5'2        1.2124   -0.0897   -2.0417 H         1 ATP         0.0280
     37 H4'         3.8049   -0.1388   -0.4009 H         1 ATP         0.2049
     38 H3'         1.6783   -1.7629    0.2715 H         1 ATP         0.1077
     39 HO3'        3.5554   -1.2733    1.4914 H         1 ATP         0.4255
     40 H2'        -0.0011    0.0027    0.0003 H         1 ATP         0.0584
     41 HO2'       -0.1563   -0.9855    2.0596 H         1 ATP         0.4149
     42 H1'         1.7826    1.9024    1.6451 H         1 ATP         0.1459
     43 H8         -0.1423    1.7373   -1.6999 H         1 ATP         0.2739
     44 HN61       -2.4811    5.8206   -1.3042 H         1 ATP         0.4605
     45 HN62       -2.5986    7.0863   -0.1113 H         1 ATP         0.4605
     46 H2          0.2128    5.7222    3.2871 H         1 ATP         0.0904
     47 H47        -1.5947    3.7835   -1.9255 H         1 ATP         0.5017
@<TRIPOS>BOND
     1    1    2 2
     2    1    3 1
     3    1    4 1
     4    1    8 1
     5    4   32 1
     6    5    6 2
     7    5    7 1
     8    5    8 1
     9    5   12 1
    10    7   33 1
    11    9   10 2
    12    9   11 1
    13    9   12 1
    14    9   13 1
    15   11   34 1
    16   13   14 1
    17   14   15 1
    18   14   35 1
    19   14   36 1
    20   15   16 1
    21   15   17 1
    22   15   37 1
    23   16   21 1
    24   17   18 1
    25   17   19 1
    26   17   38 1
    27   18   39 1
    28   19   20 1
    29   19   21 1
    30   19   40 1
    31   20   41 1
    32   21   22 1
    33   21   42 1
    34   22   23 ar
    35   22   31 ar
    36   23   24 ar
    37   23   43 1
    38   24   25 ar
    39   24   47 1
    40   25   26 ar
    41   25   31 ar
    42   26   27 1
    43   26   28 ar
    44   27   44 1
    45   27   45 1
    46   28   29 ar
    47   29   30 ar
    48   29   46 1
    49   30   31 ar
@<TRIPOS>SUBSTRUCTURE
     1 ATP         1 GROUP 0 A     ****
@<TRIPOS>MOLECULE
[[[5-(6-amino-7,8-dihydropurin-8-ylium-9-yl)-3,4-dihydroxy-tetrahydrofuran-2-yl]methoxy-hydroxy-phosphoryl]oxy-hydroxy-phosphoryl] hydrogen phosphate
   47    49     1     0     0
SMALL
USER_CHARGES

@<TRIPOS>ATOM
      1 PG          0.6465   -0.3909   -7.9799 P.3       1 ATP         1.5449
      2 O1G         1.4338    0.7084   -8.6580 O.co2     1 ATP        -0.8177
      3 O2G        -0.8329   -0.2290   -7.7096 O.co2     1 ATP        -0.8177
      4 O3G         0.8746   -1.7771   -8.8117 O.3       1 ATP        -0.7779
      5 PB          2.9242   -1.2245   -6.2783 P.3       1 ATP         1.9141
      6 O1B         3.3940   -2.4620   -6.9847 O.2       1 ATP        -0.8754
      7 O2B         3.7811    0.1083   -6.5990 O.3       1 ATP        -0.8083
      8 O3B         1.3996   -0.7919   -6.5914 O.3       1 ATP        -0.8025
      9 PA          2.1471   -2.2827   -3.6367 P.3       1 ATP         1.8015
     10 O1A         2.4550   -3.7444   -3.7865 O.2       1 ATP        -0.8201
     11 O2A         0.5865   -1.9075   -3.8410 O.3       1 ATP        -0.8103
     12 O3A         2.9198   -1.3056   -4.6653 O.3       1 ATP        -0.8038
     13 O5'         2.5233   -1.6623   -2.1893 O.3       1 ATP        -0.5730
     14 C5'         2.2816   -0.2918   -1.9206 C.3       1 ATP         0.1929
     15 C4'         2.7248    0.0226   -0.4980 C.3       1 ATP         0.1044
     16 O4'         2.4697    1.4219   -0.2462 O.3       1 ATP        -0.4079
     17 C3'         1.9404   -0.7419    0.5596 C.3       1 ATP         0.1439
     18 O3'         2.7418   -0.8086    1.7389 O.3       1 ATP        -0.5593
     19 C2'         0.7477    0.1630    0.7858 C.3       1 ATP         0.0644
     20 O2'         0.1373   -0.0577    2.0407 O.3       1 ATP        -0.5595
     21 C1'         1.3733    1.5427    0.6747 C.3       1 ATP         0.3792
     22 N9          0.4520    2.5240    0.1767 N.pl3     1 ATP        -0.5557
     23 C8         -0.3477    3.3274    0.8626 C.ar      1 ATP         0.2849
     24 N7         -1.0836    4.1323    0.0983 N.pl3     1 ATP        -0.5117
     25 C5         -0.7273    3.8194   -1.1674 C.ar      1 ATP        -0.2787
     26 C6         -1.1208    4.2877   -2.3863 C.ar      1 ATP         0.7736
     27 N6         -2.0932    5.3066   -2.4528 N.pl3     1 ATP        -0.9480
     28 N1         -0.5892    3.7853   -3.5223 N.ar      1 ATP        -0.7442
     29 C2          0.3427    2.8040   -3.3648 C.ar      1 ATP         0.7202
     30 N3          0.8012    2.2709   -2.2093 N.ar      1 ATP        -0.6957
     31 C4          0.2307    2.8167   -1.1312 C.ar      1 ATP         0.6231
     32 HOG3        0.4265   -2.5905   -8.4957 H         1 ATP         0.4452
     33 HOB2        3.8342    0.4270   -7.5251 H         1 ATP         0.4969
     34 HOA2        0.1583   -2.1116   -4.6996 H         1 ATP         0.4779
     35 H5'1        2.8428    0.3149   -2.6387 H         1 ATP         0.0280
     36 H5'2        1.2124   -0.0897   -2.0417 H         1 ATP         0.0280
     37 H4'         3.8049   -0.1388   -0.4009 H         1 ATP         0.2049
     38 H3'         1.6783   -1.7629    0.2715 H         1 ATP         0.1077
     39 HO3'        2.2232   -1.2979    2.3953 H         1 ATP         0.4255
     40 H2'        -0.0011    0.0027    0.0003 H         1 ATP         0.0584
     41 HO2'       -0.6141    0.5574    2.1082 H         1 ATP         0.4149
     42 H1'         1.7826    1.9024    1.6451 H         1 ATP         0.1459
     43 H8         -0.4040    3.3373    1.9373 H         1 ATP         0.2739
     44 HN61       -2.5133    5.6366   -1.6073 H         1 ATP         0.4605
     45 HN62       -2.4153    5.6161   -3.3477 H         1 ATP         0.4605
     46 H2          0.7668    2.4032   -4.2782 H         1 ATP         0.0904
     47 H47        -1.7549    4.8194    0.4122 H         1 ATP         0.5017
@<TRIPOS>BOND
     1    1    2 2
     2    1    3 1
     3    1    4 1
     4    1    8 1
     5    4   32 1
     6    5    6 2
     7    5    7 1
     8    5    8 1
     9    5   12 1
    10    7   33 1
    11    9   10 2
    12    9   11 1
    13    9   12 1
    14    9   13 1
    15   11   34 1
    16   13   14 1
    17   14   15 1
    18   14   35 1
    19   14   36 1
    20   15   16 1
    21   15   17 1
    22   15   37 1
    23   16   21 1
    24   17   18 1
    25   17   19 1
    26   17   38 1
    27   18   39 1
    28   19   20 1
    29   19   21 1
    30   19   40 1
    31   20   41 1
    32   21   22 1
    33   21   42 1
    34   22   23 ar
    35   22   31 ar
    36   23   24 ar
    37   23   43 1
    38   24   25 ar
    39   24   47 1
    40   25   26 ar
    41   25   31 ar
    42   26   27 1
    43   26   28 ar
    44   27   44 1
    45   27   45 1
    46   28   29 ar
    47   29   30 ar
    48   29   46 1
    49   30   31 ar
@<TRIPOS>SUBSTRUCTURE
     1 ATP         1 GROUP 0 A     ****
@<TRIPOS>MOLECULE
[[[5-(6-amino-7,8-dihydropurin-8-ylium-9-yl)-3,4-dihydroxy-tetrahydrofuran-2-yl]methoxy-hydroxy-phosphoryl]oxy-hydroxy-phosphoryl] hydrogen phosphate
   47    49     1     0     0
SMALL
USER_CHARGES

@<TRIPOS>ATOM
      1 PG          1.9013   -3.9529   -7.0049 P.3       1 ATP         1.5449
      2 O1G         2.5801   -3.7078   -8.3342 O.co2     1 ATP        -0.8177
      3 O2G         0.4732   -4.4478   -6.9452 O.co2     1 ATP        -0.8177
      4 O3G         2.8380   -4.9603   -6.1255 O.3       1 ATP        -0.7779
      5 PB          1.4097   -1.1283   -6.2579 P.3       1 ATP         1.9141
      6 O1B         1.7913   -0.4099   -7.5186 O.2       1 ATP        -0.8754
      7 O2B        -0.1787   -1.3532   -6.0578 O.3       1 ATP        -0.8083
      8 O3B         2.0362   -2.6083   -6.0941 O.3       1 ATP        -0.8025
      9 PA          3.3392   -0.0290   -4.3163 P.3       1 ATP         1.8015
     10 O1A         4.1272    0.9231   -5.1687 O.2       1 ATP        -0.8201
     11 O2A         4.0576   -1.4591   -4.0783 O.3       1 ATP        -0.8103
     12 O3A         1.8781   -0.4177   -4.8854 O.3       1 ATP        -0.8038
     13 O5'         3.0190    0.5130   -2.8246 O.3       1 ATP        -0.5730
     14 C5'         2.2816   -0.2918   -1.9206 C.3       1 ATP         0.1929
     15 C4'         2.7248    0.0226   -0.4980 C.3       1 ATP         0.1044
     16 O4'         2.4697    1.4219   -0.2462 O.3       1 ATP        -0.4079
     17 C3'         1.9404   -0.7419    0.5596 C.3       1 ATP         0.1439
     18 O3'         2.7418   -0.8086    1.7389 O.3       1 ATP        -0.5593
     19 C2'         0.7477    0.1630    0.7858 C.3       1 ATP         0.0644
     20 O2'         0.1373   -0.0577    2.0407 O.3       1 ATP        -0.5595
     21 C1'         1.3733    1.5427    0.6747 C.3       1 ATP         0.3792
     22 N9          0.4520    2.5240    0.1767 N.pl3     1 ATP        -0.5557
     23 C8         -0.3477    3.3274    0.8626 C.ar      1 ATP         0.2849
     24 N7         -1.0836    4.1323    0.0983 N.pl3     1 ATP        -0.5117
     25 C5         -0.7273    3.8194   -1.1674 C.ar      1 ATP        -0.2787
     26 C6         -1.1208    4.2877   -2.3863 C.ar      1 ATP         0.7736
     27 N6         -2.0932    5.3066   -2.4528 N.pl3     1 ATP        -0.9480
     28 N1         -0.5892    3.7853   -3.5223 N.ar      1 ATP        -0.7442
     29 C2          0.3427    2.8040   -3.3648 C.ar      1 ATP         0.7202
     30 N3          0.8012    2.2709   -2.2093 N.ar      1 ATP        -0.6957
     31 C4          0.2307    2.8167   -1.1312 C.ar      1 ATP         0.6231
     32 HOG3        2.5332   -5.2186   -5.2296 H         1 ATP         0.4452
     33 HOB2       -0.6730   -1.8710   -6.7283 H         1 ATP         0.4969
     34 HOA2        4.2678   -2.0191   -4.8556 H         1 ATP         0.4779
     35 H5'1        1.2149   -0.0786   -2.0446 H         1 ATP         0.0280
     36 H5'2        2.4641   -1.3459   -2.1539 H         1 ATP         0.0280
     37 H4'         3.8049   -0.1388   -0.4009 H         1 ATP         0.2049
     38 H3'         1.6783   -1.7629    0.2715 H         1 ATP         0.1077
     39 HO3'        2.2232   -1.2979    2.3953 H         1 ATP         0.4255
     40 H2'        -0.0011    0.0027    0.0003 H         1 ATP         0.0584
     41 HO2'       -0.6141    0.5574    2.1082 H         1 ATP         0.4149
     42 H1'         1.7826    1.9024    1.6451 H         1 ATP         0.1459
     43 H8         -0.4040    3.3373    1.9373 H         1 ATP         0.2739
     44 HN61       -2.5133    5.6366   -1.6073 H         1 ATP         0.4605
     45 HN62       -2.4153    5.6161   -3.3477 H         1 ATP         0.4605
     46 H2          0.7668    2.4032   -4.2782 H         1 ATP         0.0904
     47 H47        -1.7549    4.8194    0.4122 H         1 ATP         0.5017
@<TRIPOS>BOND
     1    1    2 2
     2    1    3 1
     3    1    4 1
     4    1    8 1
     5    4   32 1
     6    5    6 2
     7    5    7 1
     8    5    8 1
     9    5   12 1
    10    7   33 1
    11    9   10 2
    12    9   11 1
    13    9   12 1
    14    9   13 1
    15   11   34 1
    16   13   14 1
    17   14   15 1
    18   14   35 1
    19   14   36 1
    20   15   16 1
    21   15   17 1
    22   15   37 1
    23   16   21 1
    24   17   18 1
    25   17   19 1
    26   17   38 1
    27   18   39 1
    28   19   20 1
    29   19   21 1
    30   19   40 1
    31   20   41 1
    32   21   22 1
    33   21   42 1
    34   22   23 ar
    35   22   31 ar
    36   23   24 ar
    37   23   43 1
    38   24   25 ar
    39   24   47 1
    40   25   26 ar
    41   25   31 ar
    42   26   27 1
    43   26   28 ar
    44   27   44 1
    45   27   45 1
    46   28   29 ar
    47   29   30 ar
    48   29   46 1
    49   30   31 ar
@<TRIPOS>SUBSTRUCTURE
     1 ATP         1 GROUP 0 A     ****
@<TRIPOS>MOLECULE
[[[5-(6-amino-7,8-dihydropurin-8-ylium-9-yl)-3,4-dihydroxy-tetrahydrofuran-2-yl]methoxy-hydroxy-phosphoryl]oxy-hydroxy-phosphoryl] hydrogen phosphate
   47    49     1     0     0
SMALL
USER_CHARGES

@<TRIPOS>ATOM
      1 PG          4.1982   -3.0925   -7.4020 P.3       1 ATP         1.5449
      2 O1G         3.9149   -2.2525   -8.6276 O.co2     1 ATP        -0.8177
      3 O2G         4.2172   -4.6025   -7.4866 O.co2     1 ATP        -0.8177
      4 O3G         5.6072   -2.5905   -6.7473 O.3       1 ATP        -0.7779
      5 PB          2.8535   -1.1960   -5.5653 P.3       1 ATP         1.9141
      6 O1B         4.0244   -0.4969   -4.9398 O.2       1 ATP        -0.8754
      7 O2B         2.1390   -0.3836   -6.7666 O.3       1 ATP        -0.8083
      8 O3B         3.1808   -2.6396   -6.2122 O.3       1 ATP        -0.8025
      9 PA          1.5750   -2.4636   -3.2285 P.3       1 ATP         1.8015
     10 O1A         1.9420   -3.9067   -3.4205 O.2       1 ATP        -0.8201
     11 O2A         0.0757   -2.2276   -2.6680 O.3       1 ATP        -0.8103
     12 O3A         1.6402   -1.5518   -4.5606 O.3       1 ATP        -0.8038
     13 O5'         2.5233   -1.6623   -2.1893 O.3       1 ATP        -0.5730
     14 C5'         2.2816   -0.2918   -1.9206 C.3       1 ATP         0.1929
     15 C4'         2.7248    0.0226   -0.4980 C.3       1 ATP         0.1044
     16 O4'         2.4697    1.4219   -0.2462 O.3       1 ATP        -0.4079
     17 C3'         1.9404   -0.7419    0.5596 C.3       1 ATP         0.1439
     18 O3'         2.7418   -0.8086    1.7389 O.3       1 ATP        -0.5593
     19 C2'         0.7477    0.1630    0.7858 C.3       1 ATP         0.0644
     20 O2'         0.1373   -0.0577    2.0407 O.3       1 ATP        -0.5595
     21 C1'         1.3733    1.5427    0.6747 C.3       1 ATP         0.3792
     22 N9          0.4520    2.5240    0.1767 N.pl3     1 ATP        -0.5557
     23 C8         -0.3477    3.3274    0.8626 C.ar      1 ATP         0.2849
     24 N7         -1.0836    4.1323    0.0983 N.pl3     1 ATP        -0.5117
     25 C5         -0.7273    3.8194   -1.1674 C.ar      1 ATP        -0.2787
     26 C6         -1.1208    4.2877   -2.3863 C.ar      1 ATP         0.7736
     27 N6         -2.0932    5.3066   -2.4528 N.pl3     1 ATP        -0.9480
     28 N1         -0.5892    3.7853   -3.5223 N.ar      1 ATP        -0.7442
     29 C2          0.3427    2.8040   -3.3648 C.ar      1 ATP         0.7202
     30 N3          0.8012    2.2709   -2.2093 N.ar      1 ATP        -0.6957
     31 C4          0.2307    2.8167   -1.1312 C.ar      1 ATP         0.6231
     32 HOG3        5.9327   -3.0401   -5.9385 H         1 ATP         0.4452
     33 HOB2        2.6658   -0.1489   -7.5600 H         1 ATP         0.4969
     34 HOA2       -0.1714   -2.6105   -1.7994 H         1 ATP         0.4779
     35 H5'1        2.8428    0.3149   -2.6387 H         1 ATP         0.0280
     36 H5'2        1.2124   -0.0897   -2.0417 H         1 ATP         0.0280
     37 H4'         3.8049   -0.1388   -0.4009 H         1 ATP         0.2049
     38 H3'         1.6783   -1.7629    0.2715 H         1 ATP         0.1077
     39 HO3'        2.2232   -1.2979    2.3953 H         1 ATP         0.4255
     40 H2'        -0.0011    0.0027    0.0003 H         1 ATP         0.0584
     41 HO2'       -0.6141    0.5574    2.1082 H         1 ATP         0.4149
     42 H1'         1.7826    1.9024    1.6451 H         1 ATP         0.1459
     43 H8         -0.4040    3.3373    1.9373 H         1 ATP         0.2739
     44 HN61       -2.5133    5.6366   -1.6073 H         1 ATP         0.4605
     45 HN62       -2.4153    5.6161   -3.3477 H         1 ATP         0.4605
     46 H2          0.7668    2.4032   -4.2782 H         1 ATP         0.0904
     47 H47        -1.7549    4.8194    0.4122 H         1 ATP         0.5017
@<TRIPOS>BOND
     1    1    2 2
     2    1    3 1
     3    1    4 1
     4    1    8 1
     5    4   32 1
     6    5    6 2
     7    5    7 1
     8    5    8 1
     9    5   12 1
    10    7   33 1
    11    9   10 2
    12    9   11 1
    13    9   12 1
    14    9   13 1
    15   11   34 1
    16   13   14 1
    17   14   15 1
    18   14   35 1
    19   14   36 1
    20   15   16 1
    21   15   17 1
    22   15   37 1
    23   16   21 1
    24   17   18 1
    25   17   19 1
    26   17   38 1
    27   18   39 1
    28   19   20 1
    29   19   21 1
    30   19   40 1
    31   20   41 1
    32   21   22 1
    33   21   42 1
    34   22   23 ar
    35   22   31 ar
    36   23   24 ar
    37   23   43 1
    38   24   25 ar
    39   24   47 1
    40   25   26 ar
    41   25   31 ar
    42   26   27 1
    43   26   28 ar
    44   27   44 1
    45   27   45 1
    46   28   29 ar
    47   29   30 ar
    48   29   46 1
    49   30   31 ar
@<TRIPOS>SUBSTRUCTURE
     1 ATP         1 GROUP 0 A     ****
@<TRIPOS>MOLECULE
[[[5-(6-amino-7,8-dihydropurin-8-ylium-9-yl)-3,4-dihydroxy-tetrahydrofuran-2-yl]methoxy-hydroxy-phosphoryl]oxy-hydroxy-phosphoryl] hydrogen phosphate
   47    49     1     0     0
SMALL
USER_CHARGES

@<TRIPOS>ATOM
      1 PG          7.7176   -3.1669   -3.8562 P.3       1 ATP         1.5449
      2 O1G         7.6167   -4.6761   -3.8408 O.co2     1 ATP        -0.8177
      3 O2G         8.4776   -2.4314   -2.7749 O.co2     1 ATP        -0.8177
      4 O3G         8.3012   -2.7038   -5.3089 O.3       1 ATP        -0.7779
      5 PB          5.6129   -1.1034   -3.5552 P.3       1 ATP         1.9141
      6 O1B         5.7387   -0.7509   -2.1023 O.2       1 ATP        -0.8754
      7 O2B         6.3370   -0.0739   -4.5698 O.3       1 ATP        -0.8083
      8 O3B         6.2155   -2.5446   -3.9671 O.3       1 ATP        -0.8025
      9 PA          2.8569   -2.1455   -3.6982 P.3       1 ATP         1.8015
     10 O1A         3.0916   -3.6213   -3.8417 O.2       1 ATP        -0.8201
     11 O2A         1.6263   -1.5787   -4.5826 O.3       1 ATP        -0.8103
     12 O3A         4.1019   -1.2047   -4.1164 O.3       1 ATP        -0.8038
     13 O5'         2.5233   -1.6623   -2.1893 O.3       1 ATP        -0.5730
     14 C5'         2.2816   -0.2918   -1.9206 C.3       1 ATP         0.1929
     15 C4'         2.7248    0.0226   -0.4980 C.3       1 ATP         0.1044
     16 O4'         2.4697    1.4219   -0.2462 O.3       1 ATP        -0.4079
     17 C3'         1.9404   -0.7419    0.5596 C.3       1 ATP         0.1439
     18 O3'         2.7418   -0.8086    1.7389 O.3       1 ATP        -0.5593
     19 C2'         0.7477    0.1630    0.7858 C.3       1 ATP         0.0644
     20 O2'         0.1373   -0.0577    2.0407 O.3       1 ATP        -0.5595
     21 C1'         1.3733    1.5427    0.6747 C.3       1 ATP         0.3792
     22 N9          0.4520    2.5240    0.1767 N.pl3     1 ATP        -0.5557
     23 C8          0.5305    3.2394   -0.9358 C.ar      1 ATP         0.2849
     24 N7         -0.4966    4.0680   -1.1145 N.pl3     1 ATP        -0.5117
     25 C5         -1.2879    3.8664   -0.0375 C.ar      1 ATP        -0.2787
     26 C6         -2.4754    4.4084    0.3577 C.ar      1 ATP         0.7736
     27 N6         -3.0892    5.3882   -0.4495 N.pl3     1 ATP        -0.9480
     28 N1         -3.0632    4.0158    1.5092 N.ar      1 ATP        -0.7442
     29 C2         -2.4008    3.0654    2.2262 C.ar      1 ATP         0.7202
     30 N3         -1.2259    2.4663    1.9260 N.ar      1 ATP        -0.6957
     31 C4         -0.7062    2.9047    0.7757 C.ar      1 ATP         0.6231
     32 HOG3        8.4261   -1.7457   -5.4782 H         1 ATP         0.4452
     33 HOB2        7.3045    0.0677   -4.4919 H         1 ATP         0.4969
     34 HOA2        0.7265   -1.9369   -4.4273 H         1 ATP         0.4779
     35 H5'1        2.8428    0.3149   -2.6387 H         1 ATP         0.0280
     36 H5'2        1.2124   -0.0897   -2.0417 H         1 ATP         0.0280
     37 H4'         3.8049   -0.1388   -0.4009 H         1 ATP         0.2049
     38 H3'         1.6783   -1.7629    0.2715 H         1 ATP         0.1077
     39 HO3'        3.5554   -1.2733    1.4914 H         1 ATP         0.4255
     40 H2'        -0.0011    0.0027    0.0003 H         1 ATP         0.0584
     41 HO2'       -0.1563   -0.9855    2.0596 H         1 ATP         0.4149
     42 H1'         1.7826    1.9024    1.6451 H         1 ATP         0.1459
     43 H8          1.3437    3.1645   -1.6367 H         1 ATP         0.2739
     44 HN61       -2.6210    5.7042   -1.2748 H         1 ATP         0.4605
     45 HN62       -3.9356    5.8187   -0.1356 H         1 ATP         0.4605
     46 H2         -2.8752    2.7532    3.1495 H         1 ATP         0.0904
     47 H47        -0.6372    4.7004   -1.8900 H         1 ATP         0.5017
@<TRIPOS>BOND
     1    1    2 2
     2    1    3 1
     3    1    4 1
     4    1    8 1
     5    4   32 1
     6    5    6 2
     7    5    7 1
     8    5    8 1
     9    5   12 1
    10    7   33 1
    11    9   10 2
    12    9   11 1
    13    9   12 1
    14    9   13 1
    15   11   34 1
    16   13   14 1
    17   14   15 1
    18   14   35 1
    19   14   36 1
    20   15   16 1
    21   15   17 1
    22   15   37 1
    23   16   21 1
    24   17   18 1
    25   17   19 1
    26   17   38 1
    27   18   39 1
    28   19   20 1
    29   19   21 1
    30   19   40 1
    31   20   41 1
    32   21   22 1
    33   21   42 1
    34   22   23 ar
    35   22   31 ar
    36   23   24 ar
    37   23   43 1
    38   24   25 ar
    39   24   47 1
    40   25   26 ar
    41   25   31 ar
    42   26   27 1
    43   26   28 ar
    44   27   44 1
    45   27   45 1
    46   28   29 ar
    47   29   30 ar
    48   29   46 1
    49   30   31 ar
@<TRIPOS>SUBSTRUCTURE
     1 ATP         1 GROUP 0 A     ****
@<TRIPOS>MOLECULE
[[[5-(6-amino-7,8-dihydropurin-8-ylium-9-yl)-3,4-dihydroxy-tetrahydrofuran-2-yl]methoxy-hydroxy-phosphoryl]oxy-hydroxy-phosphoryl] hydrogen phosphate
   47    49     1     0     0
SMALL
USER_CHARGES

@<TRIPOS>ATOM
      1 PG         -0.7616   -0.6784   -5.3797 P.3       1 ATP         1.5449
      2 O1G        -2.1541   -0.2222   -5.7552 O.co2     1 ATP        -0.8177
      3 O2G        -0.2720   -0.5740   -3.9524 O.co2     1 ATP        -0.8177
      4 O3G        -0.5704   -2.2195   -5.8837 O.3       1 ATP        -0.7779
      5 PB          1.2171    1.3780   -6.1762 P.3       1 ATP         1.9141
      6 O1B         2.0923    1.7232   -7.3449 O.2       1 ATP        -0.8754
      7 O2B         0.1533    2.5226   -5.7618 O.3       1 ATP        -0.8083
      8 O3B         0.3108    0.0539   -6.3643 O.3       1 ATP        -0.8025
      9 PA          3.0863   -0.0757   -4.4171 P.3       1 ATP         1.8015
     10 O1A         4.3570   -0.0352   -5.2156 O.2       1 ATP        -0.8201
     11 O2A         2.2680   -1.4661   -4.5396 O.3       1 ATP        -0.8103
     12 O3A         1.9950    1.0527   -4.7988 O.3       1 ATP        -0.8038
     13 O5'         3.2874    0.1332   -2.8242 O.3       1 ATP        -0.5730
     14 C5'         2.2816   -0.2918   -1.9206 C.3       1 ATP         0.1929
     15 C4'         2.7248    0.0226   -0.4980 C.3       1 ATP         0.1044
     16 O4'         2.4697    1.4219   -0.2462 O.3       1 ATP        -0.4079
     17 C3'         1.9404   -0.7419    0.5596 C.3       1 ATP         0.1439
     18 O3'         2.7418   -0.8086    1.7389 O.3       1 ATP        -0.5593
     19 C2'         0.7477    0.1630    0.7858 C.3       1 ATP         0.0644
     20 O2'         0.1373   -0.0577    2.0407 O.3       1 ATP        -0.5595
     21 C1'         1.3733    1.5427    0.6747 C.3       1 ATP         0.3792
     22 N9          0.4520    2.5240    0.1767 N.pl3     1 ATP        -0.5557
     23 C8          0.1928    2.8484   -1.0815 C.ar      1 ATP         0.2849
     24 N7         -0.7248    3.8048   -1.2110 N.pl3     1 ATP        -0.5117
     25 C5         -1.0765    4.1129    0.0571 C.ar      1 ATP        -0.2787
     26 C6         -1.9614    5.0063    0.5851 C.ar      1 ATP         0.7736
     27 N6         -2.7145    5.8254   -0.2810 N.pl3     1 ATP        -0.9480
     28 N1         -2.1199    5.1113    1.9228 N.ar      1 ATP        -0.7442
     29 C2         -1.3522    4.2822    2.6839 C.ar      1 ATP         0.7202
     30 N3         -0.4501    3.3660    2.2638 N.ar      1 ATP        -0.6957
     31 C4         -0.3487    3.3198    0.9322 C.ar      1 ATP         0.6231
     32 HOG3        0.2876   -2.6635   -5.7136 H         1 ATP         0.4452
     33 HOB2       -0.5142    2.8110   -6.4202 H         1 ATP         0.4969
     34 HOA2        1.9544   -1.7554   -5.4228 H         1 ATP         0.4779
     35 H5'1        1.3494    0.2323   -2.1552 H         1 ATP         0.0280
     36 H5'2        2.1260   -1.3686   -2.0436 H         1 ATP         0.0280
     37 H4'         3.8049   -0.1388   -0.4009 H         1 ATP         0.2049
     38 H3'         1.6783   -1.7629    0.2715 H         1 ATP         0.1077
     39 HO3'        2.2232   -1.2979    2.3953 H         1 ATP         0.4255
     40 H2'        -0.0011    0.0027    0.0003 H         1 ATP         0.0584
     41 HO2'       -0.6141    0.5574    2.1082 H         1 ATP         0.4149
     42 H1'         1.7826    1.9024    1.6451 H         1 ATP         0.1459
     43 H8          0.6728    2.3873   -1.9272 H         1 ATP         0.2739
     44 HN61       -2.5537    5.7714   -1.2667 H         1 ATP         0.4605
     45 HN62       -3.3283    6.5126    0.1080 H         1 ATP         0.4605
     46 H2         -1.4818    4.3694    3.7565 H         1 ATP         0.0904
     47 H47        -1.0701    4.2005   -2.0743 H         1 ATP         0.5017
@<TRIPOS>BOND
     1    1    2 2
     2    1    3 1
     3    1    4 1
     4    1    8 1
     5    4   32 1
     6    5    6 2
     7    5    7 1
     8    5    8 1
     9    5   12 1
    10    7   33 1
    11    9   10 2
    12    9   11 1
    13    9   12 1
    14    9   13 1
    15   11   34 1
    16   13   14 1
    17   14   15 1
    18   14   35 1
    19   14   36 1
    20   15   16 1
    21   15   17 1
    22   15   37 1
    23   16   21 1
    24   17   18 1
    25   17   19 1
    26   17   38 1
    27   18   39 1
    28   19   20 1
    29   19   21 1
    30   19   40 1
    31   20   41 1
    32   21   22 1
    33   21   42 1
    34   22   23 ar
    35   22   31 ar
    36   23   24 ar
    37   23   43 1
    38   24   25 ar
    39   24   47 1
    40   25   26 ar
    41   25   31 ar
    42   26   27 1
    43   26   28 ar
    44   27   44 1
    45   27   45 1
    46   28   29 ar
    47   29   30 ar
    48   29   46 1
    49   30   31 ar
@<TRIPOS>SUBSTRUCTURE
     1 ATP         1 GROUP 0 A     ****
@<TRIPOS>MOLECULE
[[[5-(6-amino-7,8-dihydropurin-8-ylium-9-yl)-3,4-dihydroxy-tetrahydrofuran-2-yl]methoxy-hydroxy-phosphoryl]oxy-hydroxy-phosphoryl] hydrogen phosphate
   47    49     1     0     0
SMALL
USER_CHARGES

@<TRIPOS>ATOM
      1 PG         -3.9607   -2.4890    7.2486 P.3       1 ATP         1.5449
      2 O1G        -4.1207   -3.9726    7.0008 O.co2     1 ATP        -0.8177
      3 O2G        -5.1270   -1.5438    7.0641 O.co2     1 ATP        -0.8177
      4 O3G        -3.3538   -2.2794    8.7497 O.3       1 ATP        -0.7779
      5 PB         -1.4016   -2.7029    5.7709 P.3       1 ATP         1.9141
      6 O1B        -0.4486   -1.8271    5.0123 O.2       1 ATP        -0.8754
      7 O2B        -0.7600   -3.4608    7.0467 O.3       1 ATP        -0.8083
      8 O3B        -2.6949   -1.9477    6.3766 O.3       1 ATP        -0.8025
      9 PA         -3.0227   -3.8710    3.6008 P.3       1 ATP         1.8015
     10 O1A        -4.3193   -3.1291    3.7499 O.2       1 ATP        -0.8201
     11 O2A        -3.1911   -5.4342    3.2190 O.3       1 ATP        -0.8103
     12 O3A        -2.0836   -3.8907    4.9152 O.3       1 ATP        -0.8038
     13 O5'        -2.0397   -3.2817    2.4571 O.3       1 ATP        -0.5730
     14 C5'        -0.7840   -3.8935    2.2172 C.3       1 ATP         0.1929
     15 C4'        -0.0724   -3.1466    1.1027 C.3       1 ATP         0.1044
     16 O4'        -0.8674   -3.1929   -0.0945 O.3       1 ATP        -0.4079
     17 C3'         0.1338   -1.6715    1.4027 C.3       1 ATP         0.1439
     18 O3'         1.2893   -1.4445    2.1808 O.3       1 ATP        -0.5593
     19 C2'         0.2158   -1.0724    0.0128 C.3       1 ATP         0.0644
     20 O2'         1.5141   -1.2448   -0.5513 O.3       1 ATP        -0.5595
     21 C1'        -0.7897   -1.9176   -0.7583 C.3       1 ATP         0.3792
     22 N9         -2.1040   -1.3333   -0.7704 N.pl3     1 ATP        -0.5557
     23 C8         -3.2304   -1.8262   -0.2767 C.ar      1 ATP         0.2849
     24 N7         -4.2847   -1.0309   -0.4481 N.pl3     1 ATP        -0.5117
     25 C5         -3.7951    0.0479   -1.0985 C.ar      1 ATP        -0.2787
     26 C6         -4.3691    1.1983   -1.5536 C.ar      1 ATP         0.7736
     27 N6         -5.7501    1.4047   -1.3573 N.pl3     1 ATP        -0.9480
     28 N1         -3.6289    2.1345   -2.1869 N.ar      1 ATP        -0.7442
     29 C2         -2.3041    1.8525   -2.3333 C.ar      1 ATP         0.7202
     30 N3         -1.6387    0.7492   -1.9218 N.ar      1 ATP        -0.6957
     31 C4         -2.4348   -0.1293   -1.3053 C.ar      1 ATP         0.6231
     32 HOG3       -3.1908   -1.3646    9.0640 H         1 ATP         0.4452
     33 HOB2       -0.3754   -2.9253    7.7729 H         1 ATP         0.4969
     34 HOA2       -3.6842   -6.0212    3.8309 H         1 ATP         0.4779
     35 H5'1       -0.1920   -3.8613    3.1376 H         1 ATP         0.0280
     36 H5'2       -0.9467   -4.9385    1.9342 H         1 ATP         0.0280
     37 H4'         0.8886   -3.6448    0.8780 H         1 ATP         0.2049
     38 H3'        -0.7373   -1.2358    1.9870 H         1 ATP         0.1077
     39 HO3'        1.1626   -1.9325    3.0084 H         1 ATP         0.4255
     40 H2'        -0.0384   -0.0310    0.0096 H         1 ATP         0.0584
     41 HO2'        2.1463   -0.7958    0.0370 H         1 ATP         0.4149
     42 H1'        -0.4769   -2.1002   -1.8093 H         1 ATP         0.1459
     43 H8         -3.2974   -2.7789    0.2194 H         1 ATP         0.2739
     44 HN61       -6.2956    0.6838   -0.9296 H         1 ATP         0.4605
     45 HN62       -6.1788    2.2266   -1.7327 H         1 ATP         0.4605
     46 H2         -1.7135    2.6057   -2.8421 H         1 ATP         0.0904
     47 H47        -5.2337   -1.2102   -0.1507 H         1 ATP         0.5017
@<TRIPOS>BOND
     1    1    2 2
     2    1    3 1
     3    1    4 1
     4    1    8 1
     5    4   32 1
     6    5    6 2
     7    5    7 1
     8    5    8 1
     9    5   12 1
    10    7   33 1
    11    9   10 2
    12    9   11 1
    13    9   12 1
    14    9   13 1
    15   11   34 1
    16   13   14 1
    17   14   15 1
    18   14   35 1
    19   14   36 1
    20   15   16 1
    21   15   17 1
    22   15   37 1
    23   16   21 1
    24   17   18 1
    25   17   19 1
    26   17   38 1
    27   18   39 1
    28   19   20 1
    29   19   21 1
    30   19   40 1
    31   20   41 1
    32   21   22 1
    33   21   42 1
    34   22   23 ar
    35   22   31 ar
    36   23   24 ar
    37   23   43 1
    38   24   25 ar
    39   24   47 1
    40   25   26 ar
    41   25   31 ar
    42   26   27 1
    43   26   28 ar
    44   27   44 1
    45   27   45 1
    46   28   29 ar
    47   29   30 ar
    48   29   46 1
    49   30   31 ar
@<TRIPOS>SUBSTRUCTURE
     1 ATP         1 GROUP 0 A     ****
@<TRIPOS>MOLECULE
[[[5-(6-amino-7,8-dihydropurin-8-ylium-9-yl)-3,4-dihydroxy-tetrahydrofuran-2-yl]methoxy-hydroxy-phosphoryl]oxy-hydroxy-phosphoryl] hydrogen phosphate
   47    49     1     0     0
SMALL
USER_CHARGES

@<TRIPOS>ATOM
      1 PG          3.0608    2.3548   -6.0682 P.3       1 ATP         1.5449
      2 O1G         3.9814    3.3729   -6.7039 O.co2     1 ATP        -0.8177
      3 O2G         2.8682    2.3162   -4.5685 O.co2     1 ATP        -0.8177
      4 O3G         1.5951    2.4707   -6.7780 O.3       1 ATP        -0.7779
      5 PB          2.8042   -0.5800   -6.3834 P.3       1 ATP         1.9141
      6 O1B         1.4062   -0.7075   -6.9129 O.2       1 ATP        -0.8754
      7 O2B         3.8722   -1.6077   -7.0289 O.3       1 ATP        -0.8083
      8 O3B         3.4865    0.8700   -6.5877 O.3       1 ATP        -0.8025
      9 PA          2.6341   -2.0604   -3.8375 P.3       1 ATP         1.8015
     10 O1A         3.3737   -3.3251   -4.1654 O.2       1 ATP        -0.8201
     11 O2A         1.0234   -2.1932   -3.9140 O.3       1 ATP        -0.8103
     12 O3A         2.9659   -0.7996   -4.7916 O.3       1 ATP        -0.8038
     13 O5'         2.9195   -1.4814   -2.3527 O.3       1 ATP        -0.5730
     14 C5'         2.2816   -0.2918   -1.9206 C.3       1 ATP         0.1929
     15 C4'         2.7248    0.0226   -0.4980 C.3       1 ATP         0.1044
     16 O4'         2.4697    1.4219   -0.2462 O.3       1 ATP        -0.4079
     17 C3'         1.9404   -0.7419    0.5596 C.3       1 ATP         0.1439
     18 O3'         2.7418   -0.8086    1.7389 O.3       1 ATP        -0.5593
     19 C2'         0.7477    0.1630    0.7858 C.3       1 ATP         0.0644
     20 O2'         0.1373   -0.0577    2.0407 O.3       1 ATP        -0.5595
     21 C1'         1.3733    1.5427    0.6747 C.3       1 ATP         0.3792
     22 N9          0.4520    2.5240    0.1767 N.pl3     1 ATP        -0.5557
     23 C8          0.0623    3.6542    0.7479 C.ar      1 ATP         0.2849
     24 N7         -0.8074    4.3516    0.0193 N.pl3     1 ATP        -0.5117
     25 C5         -0.9855    3.6123   -1.0979 C.ar      1 ATP        -0.2787
     26 C6         -1.7474    3.7860   -2.2156 C.ar      1 ATP         0.7736
     27 N6         -2.5511    4.9389   -2.3303 N.pl3     1 ATP        -0.9480
     28 N1         -1.7375    2.8675   -3.2064 N.ar      1 ATP        -0.7442
     29 C2         -0.9330    1.7853   -3.0121 C.ar      1 ATP         0.7202
     30 N3         -0.1423    1.5179   -1.9478 N.ar      1 ATP        -0.6957
     31 C4         -0.2044    2.4690   -1.0113 C.ar      1 ATP         0.6231
     32 HOG3        0.8803    1.8716   -6.4742 H         1 ATP         0.4452
     33 HOB2        3.7204   -2.5720   -6.9335 H         1 ATP         0.4969
     34 HOA2        0.6086   -2.4484   -4.7654 H         1 ATP         0.4779
     35 H5'1        2.5577    0.5243   -2.5962 H         1 ATP         0.0280
     36 H5'2        1.1971   -0.4362   -1.9603 H         1 ATP         0.0280
     37 H4'         3.8049   -0.1388   -0.4009 H         1 ATP         0.2049
     38 H3'         1.6783   -1.7629    0.2715 H         1 ATP         0.1077
     39 HO3'        2.2232   -1.2979    2.3953 H         1 ATP         0.4255
     40 H2'        -0.0011    0.0027    0.0003 H         1 ATP         0.0584
     41 HO2'       -0.6141    0.5574    2.1082 H         1 ATP         0.4149
     42 H1'         1.7826    1.9024    1.6451 H         1 ATP         0.1459
     43 H8          0.4111    3.9873    1.7100 H         1 ATP         0.2739
     44 HN61       -2.5859    5.5874   -1.5698 H         1 ATP         0.4605
     45 HN62       -3.1449    5.0423   -3.1284 H         1 ATP         0.4605
     46 H2         -0.9279    1.0504   -3.8088 H         1 ATP         0.0904
     47 H47        -1.2303    5.2364    0.2633 H         1 ATP         0.5017
@<TRIPOS>BOND
     1    1    2 2
     2    1    3 1
     3    1    4 1
     4    1    8 1
     5    4   32 1
     6    5    6 2
     7    5    7 1
     8    5    8 1
     9    5   12 1
    10    7   33 1
    11    9   10 2
    12    9   11 1
    13    9   12 1
    14    9   13 1
    15   11   34 1
    16   13   14 1
    17   14   15 1
    18   14   35 1
    19   14   36 1
    20   15   16 1
    21   15   17 1
    22   15   37 1
    23   16   21 1
    24   17   18 1
    25   17   19 1
    26   17   38 1
    27   18   39 1
    28   19   20 1
    29   19   21 1
    30   19   40 1
    31   20   41 1
    32   21   22 1
    33   21   42 1
    34   22   23 ar
    35   22   31 ar
    36   23   24 ar
    37   23   43 1
    38   24   25 ar
    39   24   47 1
    40   25   26 ar
    41   25   31 ar
    42   26   27 1
    43   26   28 ar
    44   27   44 1
    45   27   45 1
    46   28   29 ar
    47   29   30 ar
    48   29   46 1
    49   30   31 ar
@<TRIPOS>SUBSTRUCTURE
     1 ATP         1 GROUP 0 A     ****
@<TRIPOS>MOLECULE
[[[5-(6-amino-7,8-dihydropurin-8-ylium-9-yl)-3,4-dihydroxy-tetrahydrofuran-2-yl]methoxy-hydroxy-phosphoryl]oxy-hydroxy-phosphoryl] hydrogen phosphate
   47    49     1     0     0
SMALL
USER_CHARGES

@<TRIPOS>ATOM
      1 PG          1.3155   -1.4258   -8.4604 P.3       1 ATP         1.5449
      2 O1G        -0.1858   -1.2450   -8.4977 O.co2     1 ATP        -0.8177
      3 O2G         1.9749   -2.5731   -9.1931 O.co2     1 ATP        -0.8177
      4 O3G         2.0149   -0.0311   -8.9412 O.3       1 ATP        -0.7779
      5 PB          3.2711   -1.4530   -6.2348 P.3       1 ATP         1.9141
      6 O1B         4.1260   -2.6317   -6.5961 O.2       1 ATP        -0.8754
      7 O2B         3.8934   -0.0146   -6.6314 O.3       1 ATP        -0.8083
      8 O3B         1.8012   -1.4395   -6.9049 O.3       1 ATP        -0.8025
      9 PA          2.1471   -2.2827   -3.6367 P.3       1 ATP         1.8015
     10 O1A         2.4550   -3.7444   -3.7865 O.2       1 ATP        -0.8201
     11 O2A         0.5865   -1.9075   -3.8410 O.3       1 ATP        -0.8103
     12 O3A         2.9198   -1.3056   -4.6653 O.3       1 ATP        -0.8038
     13 O5'         2.5233   -1.6623   -2.1893 O.3       1 ATP        -0.5730
     14 C5'         2.2816   -0.2918   -1.9206 C.3       1 ATP         0.1929
     15 C4'         2.7248    0.0226   -0.4980 C.3       1 ATP         0.1044
     16 O4'         2.4697    1.4219   -0.2462 O.3       1 ATP        -0.4079
     17 C3'         1.9404   -0.7419    0.5596 C.3       1 ATP         0.1439
     18 O3'         2.7418   -0.8086    1.7389 O.3       1 ATP        -0.5593
     19 C2'         0.7477    0.1630    0.7858 C.3       1 ATP         0.0644
     20 O2'         0.1373   -0.0577    2.0407 O.3       1 ATP        -0.5595
     21 C1'         1.3733    1.5427    0.6747 C.3       1 ATP         0.3792
     22 N9          0.4520    2.5240    0.1767 N.pl3     1 ATP        -0.5557
     23 C8          0.5305    3.2394   -0.9358 C.ar      1 ATP         0.2849
     24 N7         -0.4966    4.0680   -1.1145 N.pl3     1 ATP        -0.5117
     25 C5         -1.2879    3.8664   -0.0375 C.ar      1 ATP        -0.2787
     26 C6         -2.4754    4.4084    0.3577 C.ar      1 ATP         0.7736
     27 N6         -3.0892    5.3882   -0.4495 N.pl3     1 ATP        -0.9480
     28 N1         -3.0632    4.0158    1.5092 N.ar      1 ATP        -0.7442
     29 C2         -2.4008    3.0654    2.2262 C.ar      1 ATP         0.7202
     30 N3         -1.2259    2.4663    1.9260 N.ar      1 ATP        -0.6957
     31 C4         -0.7062    2.9047    0.7757 C.ar      1 ATP         0.6231
     32 HOG3        2.9944    0.0139   -8.9718 H         1 ATP         0.4452
     33 HOB2        4.0887    0.1745   -7.5738 H         1 ATP         0.4969
     34 HOA2        0.1583   -2.1116   -4.6996 H         1 ATP         0.4779
     35 H5'1        2.8428    0.3149   -2.6387 H         1 ATP         0.0280
     36 H5'2        1.2124   -0.0897   -2.0417 H         1 ATP         0.0280
     37 H4'         3.8049   -0.1388   -0.4009 H         1 ATP         0.2049
     38 H3'         1.6783   -1.7629    0.2715 H         1 ATP         0.1077
     39 HO3'        2.2232   -1.2979    2.3953 H         1 ATP         0.4255
     40 H2'        -0.0011    0.0027    0.0003 H         1 ATP         0.0584
     41 HO2'       -0.1563   -0.9855    2.0596 H         1 ATP         0.4149
     42 H1'         1.7826    1.9024    1.6451 H         1 ATP         0.1459
     43 H8          1.3437    3.1645   -1.6367 H         1 ATP         0.2739
     44 HN61       -2.6210    5.7042   -1.2748 H         1 ATP         0.4605
     45 HN62       -3.9356    5.8187   -0.1356 H         1 ATP         0.4605
     46 H2         -2.8752    2.7532    3.1495 H         1 ATP         0.0904
     47 H47        -0.6372    4.7004   -1.8900 H         1 ATP         0.5017
@<TRIPOS>BOND
     1    1    2 2
     2    1    3 1
     3    1    4 1
     4    1    8 1
     5    4   32 1
     6    5    6 2
     7    5    7 1
     8    5    8 1
     9    5   12 1
    10    7   33 1
    11    9   10 2
    12    9   11 1
    13    9   12 1
    14    9   13 1
    15   11   34 1
    16   13   14 1
    17   14   15 1
    18   14   35 1
    19   14   36 1
    20   15   16 1
    21   15   17 1
    22   15   37 1
    23   16   21 1
    24   17   18 1
    25   17   19 1
    26   17   38 1
    27   18   39 1
    28   19   20 1
    29   19   21 1
    30   19   40 1
    31   20   41 1
    32   21   22 1
    33   21   42 1
    34   22   23 ar
    35   22   31 ar
    36   23   24 ar
    37   23   43 1
    38   24   25 ar
    39   24   47 1
    40   25   26 ar
    41   25   31 ar
    42   26   27 1
    43   26   28 ar
    44   27   44 1
    45   27   45 1
    46   28   29 ar
    47   29   30 ar
    48   29   46 1
    49   30   31 ar
@<TRIPOS>SUBSTRUCTURE
     1 ATP         1 GROUP 0 A     ****
@<TRIPOS>MOLECULE
[[[5-(6-amino-7,8-dihydropurin-8-ylium-9-yl)-3,4-dihydroxy-tetrahydrofuran-2-yl]methoxy-hydroxy-phosphoryl]oxy-hydroxy-phosphoryl] hydrogen phosphate
   47    49     1     0     0
SMALL
USER_CHARGES

@<TRIPOS>ATOM
      1 PG          1.2707    4.6802   -5.3186 P.3       1 ATP         1.5449
      2 O1G         2.0462    4.5292   -4.0287 O.co2     1 ATP        -0.8177
      3 O2G         0.3308    5.8473   -5.5240 O.co2     1 ATP        -0.8177
      4 O3G         2.3265    4.6373   -6.5632 O.3       1 ATP        -0.7779
      5 PB         -0.2715    2.2477   -4.6233 P.3       1 ATP         1.9141
      6 O1B        -1.3939    2.8218   -3.8101 O.2       1 ATP        -0.8754
      7 O2B        -0.6915    1.0255   -5.5946 O.3       1 ATP        -0.8083
      8 O3B         0.4667    3.2928   -5.6096 O.3       1 ATP        -0.8025
      9 PA          2.3569    0.9674   -4.2305 P.3       1 ATP         1.8015
     10 O1A         3.2462    1.8166   -5.0918 O.2       1 ATP        -0.8201
     11 O2A         1.8897   -0.4193   -4.9210 O.3       1 ATP        -0.8103
     12 O3A         0.9709    1.6610   -3.7745 O.3       1 ATP        -0.8038
     13 O5'         3.0190    0.5130   -2.8246 O.3       1 ATP        -0.5730
     14 C5'         2.2816   -0.2918   -1.9206 C.3       1 ATP         0.1929
     15 C4'         2.7248    0.0226   -0.4980 C.3       1 ATP         0.1044
     16 O4'         2.4697    1.4219   -0.2462 O.3       1 ATP        -0.4079
     17 C3'         1.9404   -0.7419    0.5596 C.3       1 ATP         0.1439
     18 O3'         2.7418   -0.8086    1.7389 O.3       1 ATP        -0.5593
     19 C2'         0.7477    0.1630    0.7858 C.3       1 ATP         0.0644
     20 O2'         0.1373   -0.0577    2.0407 O.3       1 ATP        -0.5595
     21 C1'         1.3733    1.5427    0.6747 C.3       1 ATP         0.3792
     22 N9          0.4520    2.5240    0.1767 N.pl3     1 ATP        -0.5557
     23 C8         -0.2172    2.5216   -0.9668 C.ar      1 ATP         0.2849
     24 N7         -1.0011    3.5855   -1.1321 N.pl3     1 ATP        -0.5117
     25 C5         -0.8184    4.3200   -0.0123 C.ar      1 ATP        -0.2787
     26 C6         -1.3349    5.5079    0.4144 C.ar      1 ATP         0.7736
     27 N6         -2.2567    6.1930   -0.4036 N.pl3     1 ATP        -0.9480
     28 N1         -0.9716    6.0291    1.6069 N.ar      1 ATP        -0.7442
     29 C2         -0.0765    5.3009    2.3312 C.ar      1 ATP         0.7202
     30 N3          0.4933    4.1191    2.0023 N.ar      1 ATP        -0.6957
     31 C4          0.0865    3.6675    0.8123 C.ar      1 ATP         0.6231
     32 HOG3        1.9767    4.7233   -7.4756 H         1 ATP         0.4452
     33 HOB2       -0.0035    0.6054   -6.1535 H         1 ATP         0.4969
     34 HOA2        2.5738   -1.0664   -5.1952 H         1 ATP         0.4779
     35 H5'1        1.2149   -0.0786   -2.0446 H         1 ATP         0.0280
     36 H5'2        2.4641   -1.3459   -2.1539 H         1 ATP         0.0280
     37 H4'         3.8049   -0.1388   -0.4009 H         1 ATP         0.2049
     38 H3'         1.6783   -1.7629    0.2715 H         1 ATP         0.1077
     39 HO3'        2.2232   -1.2979    2.3953 H         1 ATP         0.4255
     40 H2'        -0.0011    0.0027    0.0003 H         1 ATP         0.0584
     41 HO2'       -0.6141    0.5574    2.1082 H         1 ATP         0.4149
     42 H1'         1.7826    1.9024    1.6451 H         1 ATP         0.1459
     43 H8         -0.1423    1.7373   -1.6999 H         1 ATP         0.2739
     44 HN61       -2.4811    5.8206   -1.3042 H         1 ATP         0.4605
     45 HN62       -2.5986    7.0863   -0.1113 H         1 ATP         0.4605
     46 H2          0.2128    5.7222    3.2871 H         1 ATP         0.0904
     47 H47        -1.5947    3.7835   -1.9255 H         1 ATP         0.5017
@<TRIPOS>BOND
     1    1    2 2
     2    1    3 1
     3    1    4 1
     4    1    8 1
     5    4   32 1
     6    5    6 2
     7    5    7 1
     8    5    8 1
     9    5   12 1
    10    7   33 1
    11    9   10 2
    12    9   11 1
    13    9   12 1
    14    9   13 1
    15   11   34 1
    16   13   14 1
    17   14   15 1
    18   14   35 1
    19   14   36 1
    20   15   16 1
    21   15   17 1
    22   15   37 1
    23   16   21 1
    24   17   18 1
    25   17   19 1
    26   17   38 1
    27   18   39 1
    28   19   20 1
    29   19   21 1
    30   19   40 1
    31   20   41 1
    32   21   22 1
    33   21   42 1
    34   22   23 ar
    35   22   31 ar
    36   23   24 ar
    37   23   43 1
    38   24   25 ar
    39   24   47 1
    40   25   26 ar
    41   25   31 ar
    42   26   27 1
    43   26   28 ar
    44   27   44 1
    45   27   45 1
    46   28   29 ar
    47   29   30 ar
    48   29   46 1
    49   30   31 ar
@<TRIPOS>SUBSTRUCTURE
     1 ATP         1 GROUP 0 A     ****
@<TRIPOS>MOLECULE
[[[5-(6-amino-7,8-dihydropurin-8-ylium-9-yl)-3,4-dihydroxy-tetrahydrofuran-2-yl]methoxy-hydroxy-phosphoryl]oxy-hydroxy-phosphoryl] hydrogen phosphate
   47    49     1     0     0
SMALL
USER_CHARGES

@<TRIPOS>ATOM
      1 PG          6.0796    1.5268   -4.5818 P.3       1 ATP         1.5449
      2 O1G         5.3122    2.3559   -5.5877 O.co2     1 ATP        -0.8177
      3 O2G         7.4789    1.9195   -4.1625 O.co2     1 ATP        -0.8177
      4 O3G         5.1619    1.3624   -3.2416 O.3       1 ATP        -0.7779
      5 PB          4.8985   -1.0269   -5.5100 P.3       1 ATP         1.9141
      6 O1B         4.0680   -0.5722   -6.6738 O.2       1 ATP        -0.8754
      7 O2B         5.6408   -2.4479   -5.7184 O.3       1 ATP        -0.8083
      8 O3B         6.0907   -0.0237   -5.0833 O.3       1 ATP        -0.8025
      9 PA          2.8569   -2.1455   -3.6982 P.3       1 ATP         1.8015
     10 O1A         3.0916   -3.6213   -3.8417 O.2       1 ATP        -0.8201
     11 O2A         1.6263   -1.5787   -4.5826 O.3       1 ATP        -0.8103
     12 O3A         4.1019   -1.2047   -4.1164 O.3       1 ATP        -0.8038
     13 O5'         2.5233   -1.6623   -2.1893 O.3       1 ATP        -0.5730
     14 C5'         2.2816   -0.2918   -1.9206 C.3       1 ATP         0.1929
     15 C4'         2.7248    0.0226   -0.4980 C.3       1 ATP         0.1044
     16 O4'         2.4697    1.4219   -0.2462 O.3       1 ATP        -0.4079
     17 C3'         1.9404   -0.7419    0.5596 C.3       1 ATP         0.1439
     18 O3'         2.7418   -0.8086    1.7389 O.3       1 ATP        -0.5593
     19 C2'         0.7477    0.1630    0.7858 C.3       1 ATP         0.0644
     20 O2'         0.1373   -0.0577    2.0407 O.3       1 ATP        -0.5595
     21 C1'         1.3733    1.5427    0.6747 C.3       1 ATP         0.3792
     22 N9          0.4520    2.5240    0.1767 N.pl3     1 ATP        -0.5557
     23 C8         -0.3477    3.3274    0.8626 C.ar      1 ATP         0.2849
     24 N7         -1.0836    4.1323    0.0983 N.pl3     1 ATP        -0.5117
     25 C5         -0.7273    3.8194   -1.1674 C.ar      1 ATP        -0.2787
     26 C6         -1.1208    4.2877   -2.3863 C.ar      1 ATP         0.7736
     27 N6         -2.0932    5.3066   -2.4528 N.pl3     1 ATP        -0.9480
     28 N1         -0.5892    3.7853   -3.5223 N.ar      1 ATP        -0.7442
     29 C2          0.3427    2.8040   -3.3648 C.ar      1 ATP         0.7202
     30 N3          0.8012    2.2709   -2.2093 N.ar      1 ATP        -0.6957
     31 C4          0.2307    2.8167   -1.1312 C.ar      1 ATP         0.6231
     32 HOG3        5.5221    0.8460   -2.4893 H         1 ATP         0.4452
     33 HOB2        5.0976   -3.2469   -5.8876 H         1 ATP         0.4969
     34 HOA2        1.6578   -1.6789   -5.5579 H         1 ATP         0.4779
     35 H5'1        2.8428    0.3149   -2.6387 H         1 ATP         0.0280
     36 H5'2        1.2124   -0.0897   -2.0417 H         1 ATP         0.0280
     37 H4'         3.8049   -0.1388   -0.4009 H         1 ATP         0.2049
     38 H3'         1.6783   -1.7629    0.2715 H         1 ATP         0.1077
     39 HO3'        2.2232   -1.2979    2.3953 H         1 ATP         0.4255
     40 H2'        -0.0011    0.0027    0.0003 H         1 ATP         0.0584
     41 HO2'       -0.6141    0.5574    2.1082 H         1 ATP         0.4149
     42 H1'         1.7826    1.9024    1.6451 H         1 ATP         0.1459
     43 H8         -0.4040    3.3373    1.9373 H         1 ATP         0.2739
     44 HN61       -2.5133    5.6366   -1.6073 H         1 ATP         0.4605
     45 HN62       -2.4153    5.6161   -3.3477 H         1 ATP         0.4605
     46 H2          0.7668    2.4032   -4.2782 H         1 ATP         0.0904
     47 H47        -1.7549    4.8194    0.4122 H         1 ATP         0.5017
@<TRIPOS>BOND
     1    1    2 2
     2    1    3 1
     3    1    4 1
     4    1    8 1
     5    4   32 1
     6    5    6 2
     7    5    7 1
     8    5    8 1
     9    5   12 1
    10    7   33 1
    11    9   10 2
    12    9   11 1
    13    9   12 1
    14    9   13 1
    15   11   34 1
    16   13   14 1
    17   14   15 1
    18   14   35 1
    19   14   36 1
    20   15   16 1
    21   15   17 1
    22   15   37 1
    23   16   21 1
    24   17   18 1
    25   17   19 1
    26   17   38 1
    27   18   39 1
    28   19   20 1
    29   19   21 1
    30   19   40 1
    31   20   41 1
    32   21   22 1
    33   21   42 1
    34   22   23 ar
    35   22   31 ar
    36   23   24 ar
    37   23   43 1
    38   24   25 ar
    39   24   47 1
    40   25   26 ar
    41   25   31 ar
    42   26   27 1
    43   26   28 ar
    44   27   44 1
    45   27   45 1
    46   28   29 ar
    47   29   30 ar
    48   29   46 1
    49   30   31 ar
@<TRIPOS>SUBSTRUCTURE
     1 ATP         1 GROUP 0 A     ****
@<TRIPOS>MOLECULE
[[[5-(6-amino-7,8-dihydropurin-8-ylium-9-yl)-3,4-dihydroxy-tetrahydrofuran-2-yl]methoxy-hydroxy-phosphoryl]oxy-hydroxy-phosphoryl] hydrogen phosphate
   47    49     1     0     0
SMALL
USER_CHARGES

@<TRIPOS>ATOM
      1 PG          3.8077    0.1690   -7.9916 P.3       1 ATP         1.5449
      2 O1G         4.0971   -0.9822   -8.9292 O.co2     1 ATP        -0.8177
      3 O2G         4.6536    1.4226   -8.0217 O.co2     1 ATP        -0.8177
      4 O3G         2.2410    0.5944   -8.1655 O.3       1 ATP        -0.7779
      5 PB          4.8985   -1.0269   -5.5100 P.3       1 ATP         1.9141
      6 O1B         5.5618   -2.2656   -6.0360 O.2       1 ATP        -0.8754
      7 O2B         5.8973    0.2136   -5.2323 O.3       1 ATP        -0.8083
      8 O3B         3.7563   -0.4008   -6.4657 O.3       1 ATP        -0.8025
      9 PA          2.8569   -2.1455   -3.6982 P.3       1 ATP         1.8015
     10 O1A         3.0916   -3.6213   -3.8417 O.2       1 ATP        -0.8201
     11 O2A         1.6263   -1.5787   -4.5826 O.3       1 ATP        -0.8103
     12 O3A         4.1019   -1.2047   -4.1164 O.3       1 ATP        -0.8038
     13 O5'         2.5233   -1.6623   -2.1893 O.3       1 ATP        -0.5730
     14 C5'         2.2816   -0.2918   -1.9206 C.3       1 ATP         0.1929
     15 C4'         2.7248    0.0226   -0.4980 C.3       1 ATP         0.1044
     16 O4'         2.4697    1.4219   -0.2462 O.3       1 ATP        -0.4079
     17 C3'         1.9404   -0.7419    0.5596 C.3       1 ATP         0.1439
     18 O3'         2.7418   -0.8086    1.7389 O.3       1 ATP        -0.5593
     19 C2'         0.7477    0.1630    0.7858 C.3       1 ATP         0.0644
     20 O2'         0.1373   -0.0577    2.0407 O.3       1 ATP        -0.5595
     21 C1'         1.3733    1.5427    0.6747 C.3       1 ATP         0.3792
     22 N9          0.4520    2.5240    0.1767 N.pl3     1 ATP        -0.5557
     23 C8         -0.3477    3.3274    0.8626 C.ar      1 ATP         0.2849
     24 N7         -1.0836    4.1323    0.0983 N.pl3     1 ATP        -0.5117
     25 C5         -0.7273    3.8194   -1.1674 C.ar      1 ATP        -0.2787
     26 C6         -1.1208    4.2877   -2.3863 C.ar      1 ATP         0.7736
     27 N6         -2.0932    5.3066   -2.4528 N.pl3     1 ATP        -0.9480
     28 N1         -0.5892    3.7853   -3.5223 N.ar      1 ATP        -0.7442
     29 C2          0.3427    2.8040   -3.3648 C.ar      1 ATP         0.7202
     30 N3          0.8012    2.2709   -2.2093 N.ar      1 ATP        -0.6957
     31 C4          0.2307    2.8167   -1.1312 C.ar      1 ATP         0.6231
     32 HOG3        1.8945    1.3332   -7.6211 H         1 ATP         0.4452
     33 HOB2        6.4184    0.5796   -5.9783 H         1 ATP         0.4969
     34 HOA2        1.6578   -1.6789   -5.5579 H         1 ATP         0.4779
     35 H5'1        2.8428    0.3149   -2.6387 H         1 ATP         0.0280
     36 H5'2        1.2124   -0.0897   -2.0417 H         1 ATP         0.0280
     37 H4'         3.8049   -0.1388   -0.4009 H         1 ATP         0.2049
     38 H3'         1.6783   -1.7629    0.2715 H         1 ATP         0.1077
     39 HO3'        2.2232   -1.2979    2.3953 H         1 ATP         0.4255
     40 H2'        -0.0011    0.0027    0.0003 H         1 ATP         0.0584
     41 HO2'       -0.6141    0.5574    2.1082 H         1 ATP         0.4149
     42 H1'         1.7826    1.9024    1.6451 H         1 ATP         0.1459
     43 H8         -0.4040    3.3373    1.9373 H         1 ATP         0.2739
     44 HN61       -2.5133    5.6366   -1.6073 H         1 ATP         0.4605
     45 HN62       -2.4153    5.6161   -3.3477 H         1 ATP         0.4605
     46 H2          0.7668    2.4032   -4.2782 H         1 ATP         0.0904
     47 H47        -1.7549    4.8194    0.4122 H         1 ATP         0.5017
@<TRIPOS>BOND
     1    1    2 2
     2    1    3 1
     3    1    4 1
     4    1    8 1
     5    4   32 1
     6    5    6 2
     7    5    7 1
     8    5    8 1
     9    5   12 1
    10    7   33 1
    11    9   10 2
    12    9   11 1
    13    9   12 1
    14    9   13 1
    15   11   34 1
    16   13   14 1
    17   14   15 1
    18   14   35 1
    19   14   36 1
    20   15   16 1
    21   15   17 1
    22   15   37 1
    23   16   21 1
    24   17   18 1
    25   17   19 1
    26   17   38 1
    27   18   39 1
    28   19   20 1
    29   19   21 1
    30   19   40 1
    31   20   41 1
    32   21   22 1
    33   21   42 1
    34   22   23 ar
    35   22   31 ar
    36   23   24 ar
    37   23   43 1
    38   24   25 ar
    39   24   47 1
    40   25   26 ar
    41   25   31 ar
    42   26   27 1
    43   26   28 ar
    44   27   44 1
    45   27   45 1
    46   28   29 ar
    47   29   30 ar
    48   29   46 1
    49   30   31 ar
@<TRIPOS>SUBSTRUCTURE
     1 ATP         1 GROUP 0 A     ****
@<TRIPOS>MOLECULE
[[[5-(6-amino-7,8-dihydropurin-8-ylium-9-yl)-3,4-dihydroxy-tetrahydrofuran-2-yl]methoxy-hydroxy-phosphoryl]oxy-hydroxy-phosphoryl] hydrogen phosphate
   47    49     1     0     0
SMALL
USER_CHARGES

@<TRIPOS>ATOM
      1 PG          3.9121    0.2428   -7.5301 P.3       1 ATP         1.5449
      2 O1G         2.4103    0.0618   -7.5284 O.co2     1 ATP        -0.8177
      3 O2G         4.7948   -0.6248   -8.3997 O.co2     1 ATP        -0.8177
      4 O3G         4.2425    1.8088   -7.8525 O.3       1 ATP        -0.7779
      5 PB          4.4913   -1.0337   -4.9198 P.3       1 ATP         1.9141
      6 O1B         5.2931   -2.2306   -5.3383 O.2       1 ATP        -0.8754
      7 O2B         4.9898   -0.3245   -3.5553 O.3       1 ATP        -0.8083
      8 O3B         4.4480    0.1734   -5.9927 O.3       1 ATP        -0.8025
      9 PA          2.1471   -2.2827   -3.6367 P.3       1 ATP         1.8015
     10 O1A         2.4550   -3.7444   -3.7865 O.2       1 ATP        -0.8201
     11 O2A         0.5865   -1.9075   -3.8410 O.3       1 ATP        -0.8103
     12 O3A         2.9198   -1.3056   -4.6653 O.3       1 ATP        -0.8038
     13 O5'         2.5233   -1.6623   -2.1893 O.3       1 ATP        -0.5730
     14 C5'         2.2816   -0.2918   -1.9206 C.3       1 ATP         0.1929
     15 C4'         2.7248    0.0226   -0.4980 C.3       1 ATP         0.1044
     16 O4'         2.4697    1.4219   -0.2462 O.3       1 ATP        -0.4079
     17 C3'         1.9404   -0.7419    0.5596 C.3       1 ATP         0.1439
     18 O3'         2.7418   -0.8086    1.7389 O.3       1 ATP        -0.5593
     19 C2'         0.7477    0.1630    0.7858 C.3       1 ATP         0.0644
     20 O2'         0.1373   -0.0577    2.0407 O.3       1 ATP        -0.5595
     21 C1'         1.3733    1.5427    0.6747 C.3       1 ATP         0.3792
     22 N9          0.4520    2.5240    0.1767 N.pl3     1 ATP        -0.5557
     23 C8         -0.3477    3.3274    0.8626 C.ar      1 ATP         0.2849
     24 N7         -1.0836    4.1323    0.0983 N.pl3     1 ATP        -0.5117
     25 C5         -0.7273    3.8194   -1.1674 C.ar      1 ATP        -0.2787
     26 C6         -1.1208    4.2877   -2.3863 C.ar      1 ATP         0.7736
     27 N6         -2.0932    5.3066   -2.4528 N.pl3     1 ATP        -0.9480
     28 N1         -0.5892    3.7853   -3.5223 N.ar      1 ATP        -0.7442
     29 C2          0.3427    2.8040   -3.3648 C.ar      1 ATP         0.7202
     30 N3          0.8012    2.2709   -2.2093 N.ar      1 ATP        -0.6957
     31 C4          0.2307    2.8167   -1.1312 C.ar      1 ATP         0.6231
     32 HOG3        5.1815    2.0901   -7.8891 H         1 ATP         0.4452
     33 HOB2        4.9989   -0.8465   -2.7250 H         1 ATP         0.4969
     34 HOA2       -0.0800   -2.3109   -3.2451 H         1 ATP         0.4779
     35 H5'1        2.8428    0.3149   -2.6387 H         1 ATP         0.0280
     36 H5'2        1.2124   -0.0897   -2.0417 H         1 ATP         0.0280
     37 H4'         3.8049   -0.1388   -0.4009 H         1 ATP         0.2049
     38 H3'         1.6783   -1.7629    0.2715 H         1 ATP         0.1077
     39 HO3'        2.2232   -1.2979    2.3953 H         1 ATP         0.4255
     40 H2'        -0.0011    0.0027    0.0003 H         1 ATP         0.0584
     41 HO2'       -0.6141    0.5574    2.1082 H         1 ATP         0.4149
     42 H1'         1.7826    1.9024    1.6451 H         1 ATP         0.1459
     43 H8         -0.4040    3.3373    1.9373 H         1 ATP         0.2739
     44 HN61       -2.5133    5.6366   -1.6073 H         1 ATP         0.4605
     45 HN62       -2.4153    5.6161   -3.3477 H         1 ATP         0.4605
     46 H2          0.7668    2.4032   -4.2782 H         1 ATP         0.0904
     47 H47        -1.7549    4.8194    0.4122 H         1 ATP         0.5017
@<TRIPOS>BOND
     1    1    2 2
     2    1    3 1
     3    1    4 1
     4    1    8 1
     5    4   32 1
     6    5    6 2
     7    5    7 1
     8    5    8 1
     9    5   12 1
    10    7   33 1
    11    9   10 2
    12    9   11 1
    13    9   12 1
    14    9   13 1
    15   11   34 1
    16   13   14 1
    17   14   15 1
    18   14   35 1
    19   14   36 1
    20   15   16 1
    21   15   17 1
    22   15   37 1
    23   16   21 1
    24   17   18 1
    25   17   19 1
    26   17   38 1
    27   18   39 1
    28   19   20 1
    29   19   21 1
    30   19   40 1
    31   20   41 1
    32   21   22 1
    33   21   42 1
    34   22   23 ar
    35   22   31 ar
    36   23   24 ar
    37   23   43 1
    38   24   25 ar
    39   24   47 1
    40   25   26 ar
    41   25   31 ar
    42   26   27 1
    43   26   28 ar
    44   27   44 1
    45   27   45 1
    46   28   29 ar
    47   29   30 ar
    48   29   46 1
    49   30   31 ar
@<TRIPOS>SUBSTRUCTURE
     1 ATP         1 GROUP 0 A     ****
@<TRIPOS>MOLECULE
[[[5-(6-amino-7,8-dihydropurin-8-ylium-9-yl)-3,4-dihydroxy-tetrahydrofuran-2-yl]methoxy-hydroxy-phosphoryl]oxy-hydroxy-phosphoryl] hydrogen phosphate
   47    49     1     0     0
SMALL
USER_CHARGES

@<TRIPOS>ATOM
      1 PG          0.6837   -7.9309    6.5674 P.3       1 ATP         1.5449
      2 O1G         0.7599   -9.4334    6.7248 O.co2     1 ATP        -0.8177
      3 O2G        -0.5656   -7.1743    6.9606 O.co2     1 ATP        -0.8177
      4 O3G         1.9591   -7.2661    7.3399 O.3       1 ATP        -0.7779
      5 PB          0.1700   -7.2438    3.7314 P.3       1 ATP         1.9141
      6 O1B         0.9349   -6.9217    2.4817 O.2       1 ATP        -0.8754
      7 O2B        -0.7979   -8.5342    3.6227 O.3       1 ATP        -0.8083
      8 O3B         1.0773   -7.5462    5.0334 O.3       1 ATP        -0.8025
      9 PA         -0.5043   -4.5581    4.7483 P.3       1 ATP         1.8015
     10 O1A         0.4315   -4.4253    5.9147 O.2       1 ATP        -0.8201
     11 O2A        -1.9751   -3.9332    5.0013 O.3       1 ATP        -0.8103
     12 O3A        -0.8022   -6.0726    4.2713 O.3       1 ATP        -0.8038
     13 O5'         0.0090   -3.8407    3.3907 O.3       1 ATP        -0.5730
     14 C5'        -0.7840   -3.8935    2.2172 C.3       1 ATP         0.1929
     15 C4'        -0.0724   -3.1466    1.1027 C.3       1 ATP         0.1044
     16 O4'        -0.8674   -3.1929   -0.0945 O.3       1 ATP        -0.4079
     17 C3'         0.1338   -1.6715    1.4027 C.3       1 ATP         0.1439
     18 O3'         1.2893   -1.4445    2.1808 O.3       1 ATP        -0.5593
     19 C2'         0.2158   -1.0724    0.0128 C.3       1 ATP         0.0644
     20 O2'         1.5141   -1.2448   -0.5513 O.3       1 ATP        -0.5595
     21 C1'        -0.7897   -1.9176   -0.7583 C.3       1 ATP         0.3792
     22 N9         -2.1040   -1.3333   -0.7704 N.pl3     1 ATP        -0.5557
     23 C8         -3.2304   -1.8262   -0.2767 C.ar      1 ATP         0.2849
     24 N7         -4.2847   -1.0309   -0.4481 N.pl3     1 ATP        -0.5117
     25 C5         -3.7951    0.0479   -1.0985 C.ar      1 ATP        -0.2787
     26 C6         -4.3691    1.1983   -1.5536 C.ar      1 ATP         0.7736
     27 N6         -5.7501    1.4047   -1.3573 N.pl3     1 ATP        -0.9480
     28 N1         -3.6289    2.1345   -2.1869 N.ar      1 ATP        -0.7442
     29 C2         -2.3041    1.8525   -2.3333 C.ar      1 ATP         0.7202
     30 N3         -1.6387    0.7492   -1.9218 N.ar      1 ATP        -0.6957
     31 C4         -2.4348   -0.1293   -1.3053 C.ar      1 ATP         0.6231
     32 HOG3        2.0538   -6.2898    7.3304 H         1 ATP         0.4452
     33 HOB2       -0.4033   -9.4070    3.4115 H         1 ATP         0.4969
     34 HOA2       -2.0550   -2.9780    5.2096 H         1 ATP         0.4779
     35 H5'1       -0.9362   -4.9413    1.9386 H         1 ATP         0.0280
     36 H5'2       -1.7562   -3.4348    2.4249 H         1 ATP         0.0280
     37 H4'         0.8886   -3.6448    0.8780 H         1 ATP         0.2049
     38 H3'        -0.7373   -1.2358    1.9870 H         1 ATP         0.1077
     39 HO3'        1.1626   -1.9325    3.0084 H         1 ATP         0.4255
     40 H2'        -0.0384   -0.0310    0.0096 H         1 ATP         0.0584
     41 HO2'        2.1463   -0.7958    0.0370 H         1 ATP         0.4149
     42 H1'        -0.4769   -2.1002   -1.8093 H         1 ATP         0.1459
     43 H8         -3.2974   -2.7789    0.2194 H         1 ATP         0.2739
     44 HN61       -6.2956    0.6838   -0.9296 H         1 ATP         0.4605
     45 HN62       -6.1788    2.2266   -1.7327 H         1 ATP         0.4605
     46 H2         -1.7135    2.6057   -2.8421 H         1 ATP         0.0904
     47 H47        -5.2337   -1.2102   -0.1507 H         1 ATP         0.5017
@<TRIPOS>BOND
     1    1    2 2
     2    1    3 1
     3    1    4 1
     4    1    8 1
     5    4   32 1
     6    5    6 2
     7    5    7 1
     8    5    8 1
     9    5   12 1
    10    7   33 1
    11    9   10 2
    12    9   11 1
    13    9   12 1
    14    9   13 1
    15   11   34 1
    16   13   14 1
    17   14   15 1
    18   14   35 1
    19   14   36 1
    20   15   16 1
    21   15   17 1
    22   15   37 1
    23   16   21 1
    24   17   18 1
    25   17   19 1
    26   17   38 1
    27   18   39 1
    28   19   20 1
    29   19   21 1
    30   19   40 1
    31   20   41 1
    32   21   22 1
    33   21   42 1
    34   22   23 ar
    35   22   31 ar
    36   23   24 ar
    37   23   43 1
    38   24   25 ar
    39   24   47 1
    40   25   26 ar
    41   25   31 ar
    42   26   27 1
    43   26   28 ar
    44   27   44 1
    45   27   45 1
    46   28   29 ar
    47   29   30 ar
    48   29   46 1
    49   30   31 ar
@<TRIPOS>SUBSTRUCTURE
     1 ATP         1 GROUP 0 A     ****
@<TRIPOS>MOLECULE
[[[5-(6-amino-7,8-dihydropurin-8-ylium-9-yl)-3,4-dihydroxy-tetrahydrofuran-2-yl]methoxy-hydroxy-phosphoryl]oxy-hydroxy-phosphoryl] hydrogen phosphate
   47    49     1     0     0
SMALL
USER_CHARGES

@<TRIPOS>ATOM
      1 PG          7.7176   -3.1669   -3.8562 P.3       1 ATP         1.5449
      2 O1G         8.6865   -2.2157   -4.5227 O.co2     1 ATP        -0.8177
      3 O2G         7.6761   -4.6279   -4.2459 O.co2     1 ATP        -0.8177
      4 O3G         7.9247   -3.0655   -2.2399 O.3       1 ATP        -0.7779
      5 PB          5.6129   -1.1034   -3.5552 P.3       1 ATP         1.9141
      6 O1B         5.7387   -0.7509   -2.1023 O.2       1 ATP        -0.8754
      7 O2B         6.3370   -0.0739   -4.5698 O.3       1 ATP        -0.8083
      8 O3B         6.2155   -2.5446   -3.9671 O.3       1 ATP        -0.8025
      9 PA          2.8569   -2.1455   -3.6982 P.3       1 ATP         1.8015
     10 O1A         3.0916   -3.6213   -3.8417 O.2       1 ATP        -0.8201
     11 O2A         1.6263   -1.5787   -4.5826 O.3       1 ATP        -0.8103
     12 O3A         4.1019   -1.2047   -4.1164 O.3       1 ATP        -0.8038
     13 O5'         2.5233   -1.6623   -2.1893 O.3       1 ATP        -0.5730
     14 C5'         2.2816   -0.2918   -1.9206 C.3       1 ATP         0.1929
     15 C4'         2.7248    0.0226   -0.4980 C.3       1 ATP         0.1044
     16 O4'         2.4697    1.4219   -0.2462 O.3       1 ATP        -0.4079
     17 C3'         1.9404   -0.7419    0.5596 C.3       1 ATP         0.1439
     18 O3'         2.7418   -0.8086    1.7389 O.3       1 ATP        -0.5593
     19 C2'         0.7477    0.1630    0.7858 C.3       1 ATP         0.0644
     20 O2'         0.1373   -0.0577    2.0407 O.3       1 ATP        -0.5595
     21 C1'         1.3733    1.5427    0.6747 C.3       1 ATP         0.3792
     22 N9          0.4520    2.5240    0.1767 N.pl3     1 ATP        -0.5557
     23 C8         -0.3477    3.3274    0.8626 C.ar      1 ATP         0.2849
     24 N7         -1.0836    4.1323    0.0983 N.pl3     1 ATP        -0.5117
     25 C5         -0.7273    3.8194   -1.1674 C.ar      1 ATP        -0.2787
     26 C6         -1.1208    4.2877   -2.3863 C.ar      1 ATP         0.7736
     27 N6         -2.0932    5.3066   -2.4528 N.pl3     1 ATP        -0.9480
     28 N1         -0.5892    3.7853   -3.5223 N.ar      1 ATP        -0.7442
     29 C2          0.3427    2.8040   -3.3648 C.ar      1 ATP         0.7202
     30 N3          0.8012    2.2709   -2.2093 N.ar      1 ATP        -0.6957
     31 C4          0.2307    2.8167   -1.1312 C.ar      1 ATP         0.6231
     32 HOG3        7.3651   -3.6261   -1.6612 H         1 ATP         0.4452
     33 HOB2        7.3045    0.0677   -4.4919 H         1 ATP         0.4969
     34 HOA2        0.7265   -1.9369   -4.4273 H         1 ATP         0.4779
     35 H5'1        2.8428    0.3149   -2.6387 H         1 ATP         0.0280
     36 H5'2        1.2124   -0.0897   -2.0417 H         1 ATP         0.0280
     37 H4'         3.8049   -0.1388   -0.4009 H         1 ATP         0.2049
     38 H3'         1.6783   -1.7629    0.2715 H         1 ATP         0.1077
     39 HO3'        2.2232   -1.2979    2.3953 H         1 ATP         0.4255
     40 H2'        -0.0011    0.0027    0.0003 H         1 ATP         0.0584
     41 HO2'       -0.6141    0.5574    2.1082 H         1 ATP         0.4149
     42 H1'         1.7826    1.9024    1.6451 H         1 ATP         0.1459
     43 H8         -0.4040    3.3373    1.9373 H         1 ATP         0.2739
     44 HN61       -2.5133    5.6366   -1.6073 H         1 ATP         0.4605
     45 HN62       -2.4153    5.6161   -3.3477 H         1 ATP         0.4605
     46 H2          0.7668    2.4032   -4.2782 H         1 ATP         0.0904
     47 H47        -1.7549    4.8194    0.4122 H         1 ATP         0.5017
@<TRIPOS>BOND
     1    1    2 2
     2    1    3 1
     3    1    4 1
     4    1    8 1
     5    4   32 1
     6    5    6 2
     7    5    7 1
     8    5    8 1
     9    5   12 1
    10    7   33 1
    11    9   10 2
    12    9   11 1
    13    9   12 1
    14    9   13 1
    15   11   34 1
    16   13   14 1
    17   14   15 1
    18   14   35 1
    19   14   36 1
    20   15   16 1
    21   15   17 1
    22   15   37 1
    23   16   21 1
    24   17   18 1
    25   17   19 1
    26   17   38 1
    27   18   39 1
    28   19   20 1
    29   19   21 1
    30   19   40 1
    31   20   41 1
    32   21   22 1
    33   21   42 1
    34   22   23 ar
    35   22   31 ar
    36   23   24 ar
    37   23   43 1
    38   24   25 ar
    39   24   47 1
    40   25   26 ar
    41   25   31 ar
    42   26   27 1
    43   26   28 ar
    44   27   44 1
    45   27   45 1
    46   28   29 ar
    47   29   30 ar
    48   29   46 1
    49   30   31 ar
@<TRIPOS>SUBSTRUCTURE
     1 ATP         1 GROUP 0 A     ****
@<TRIPOS>MOLECULE
[[[5-(6-amino-7,8-dihydropurin-8-ylium-9-yl)-3,4-dihydroxy-tetrahydrofuran-2-yl]methoxy-hydroxy-phosphoryl]oxy-hydroxy-phosphoryl] hydrogen phosphate
   47    49     1     0     0
SMALL
USER_CHARGES

@<TRIPOS>ATOM
      1 PG          5.0586   -0.8072   -7.3781 P.3       1 ATP         1.5449
      2 O1G         5.8904    0.3048   -7.9777 O.co2     1 ATP        -0.8177
      3 O2G         3.5636   -0.8615   -7.6012 O.co2     1 ATP        -0.8177
      4 O3G         5.7045   -2.2364   -7.8319 O.3       1 ATP        -0.7779
      5 PB          4.8982   -1.9306   -4.6412 P.3       1 ATP         1.9141
      6 O1B         5.3315   -3.3487   -4.8690 O.2       1 ATP        -0.8754
      7 O2B         5.4273   -1.2710   -3.2633 O.3       1 ATP        -0.8083
      8 O3B         5.3601   -0.8800   -5.7782 O.3       1 ATP        -0.8025
      9 PA          2.1471   -2.2827   -3.6367 P.3       1 ATP         1.8015
     10 O1A         2.0004   -3.7767   -3.6545 O.2       1 ATP        -0.8201
     11 O2A         0.8165   -1.4786   -4.0847 O.3       1 ATP        -0.8103
     12 O3A         3.3016   -1.6910   -4.5994 O.3       1 ATP        -0.8038
     13 O5'         2.5233   -1.6623   -2.1893 O.3       1 ATP        -0.5730
     14 C5'         2.2816   -0.2918   -1.9206 C.3       1 ATP         0.1929
     15 C4'         2.7248    0.0226   -0.4980 C.3       1 ATP         0.1044
     16 O4'         2.4697    1.4219   -0.2462 O.3       1 ATP        -0.4079
     17 C3'         1.9404   -0.7419    0.5596 C.3       1 ATP         0.1439
     18 O3'         2.7418   -0.8086    1.7389 O.3       1 ATP        -0.5593
     19 C2'         0.7477    0.1630    0.7858 C.3       1 ATP         0.0644
     20 O2'         0.1373   -0.0577    2.0407 O.3       1 ATP        -0.5595
     21 C1'         1.3733    1.5427    0.6747 C.3       1 ATP         0.3792
     22 N9          0.4520    2.5240    0.1767 N.pl3     1 ATP        -0.5557
     23 C8         -0.3477    3.3274    0.8626 C.ar      1 ATP         0.2849
     24 N7         -1.0836    4.1323    0.0983 N.pl3     1 ATP        -0.5117
     25 C5         -0.7273    3.8194   -1.1674 C.ar      1 ATP        -0.2787
     26 C6         -1.1208    4.2877   -2.3863 C.ar      1 ATP         0.7736
     27 N6         -2.0932    5.3066   -2.4528 N.pl3     1 ATP        -0.9480
     28 N1         -0.5892    3.7853   -3.5223 N.ar      1 ATP        -0.7442
     29 C2          0.3427    2.8040   -3.3648 C.ar      1 ATP         0.7202
     30 N3          0.8012    2.2709   -2.2093 N.ar      1 ATP        -0.6957
     31 C4          0.2307    2.8167   -1.1312 C.ar      1 ATP         0.6231
     32 HOG3        5.2757   -3.0623   -7.5215 H         1 ATP         0.4452
     33 HOB2        5.1750   -1.6857   -2.4110 H         1 ATP         0.4969
     34 HOA2        0.4510   -1.6295   -4.9823 H         1 ATP         0.4779
     35 H5'1        2.8428    0.3149   -2.6387 H         1 ATP         0.0280
     36 H5'2        1.2124   -0.0897   -2.0417 H         1 ATP         0.0280
     37 H4'         3.8049   -0.1388   -0.4009 H         1 ATP         0.2049
     38 H3'         1.6783   -1.7629    0.2715 H         1 ATP         0.1077
     39 HO3'        2.2232   -1.2979    2.3953 H         1 ATP         0.4255
     40 H2'        -0.0011    0.0027    0.0003 H         1 ATP         0.0584
     41 HO2'       -0.6141    0.5574    2.1082 H         1 ATP         0.4149
     42 H1'         1.7826    1.9024    1.6451 H         1 ATP         0.1459
     43 H8         -0.4040    3.3373    1.9373 H         1 ATP         0.2739
     44 HN61       -2.3467    5.6821   -3.3445 H         1 ATP         0.4605
     45 HN62       -2.4443    5.7023   -1.6040 H         1 ATP         0.4605
     46 H2          0.7668    2.4032   -4.2782 H         1 ATP         0.0904
     47 H47        -1.7549    4.8194    0.4122 H         1 ATP         0.5017
@<TRIPOS>BOND
     1    1    2 2
     2    1    3 1
     3    1    4 1
     4    1    8 1
     5    4   32 1
     6    5    6 2
     7    5    7 1
     8    5    8 1
     9    5   12 1
    10    7   33 1
    11    9   10 2
    12    9   11 1
    13    9   12 1
    14    9   13 1
    15   11   34 1
    16   13   14 1
    17   14   15 1
    18   14   35 1
    19   14   36 1
    20   15   16 1
    21   15   17 1
    22   15   37 1
    23   16   21 1
    24   17   18 1
    25   17   19 1
    26   17   38 1
    27   18   39 1
    28   19   20 1
    29   19   21 1
    30   19   40 1
    31   20   41 1
    32   21   22 1
    33   21   42 1
    34   22   23 ar
    35   22   31 ar
    36   23   24 ar
    37   23   43 1
    38   24   25 ar
    39   24   47 1
    40   25   26 ar
    41   25   31 ar
    42   26   27 1
    43   26   28 ar
    44   27   44 1
    45   27   45 1
    46   28   29 ar
    47   29   30 ar
    48   29   46 1
    49   30   31 ar
@<TRIPOS>SUBSTRUCTURE
     1 ATP         1 GROUP 0 A     ****
@<TRIPOS>MOLECULE
[[[5-(6-amino-7,8-dihydropurin-8-ylium-9-yl)-3,4-dihydroxy-tetrahydrofuran-2-yl]methoxy-hydroxy-phosphoryl]oxy-hydroxy-phosphoryl] hydrogen phosphate
   47    49     1     0     0
SMALL
USER_CHARGES

@<TRIPOS>ATOM
      1 PG         -4.3195   -8.8523    2.7554 P.3       1 ATP         1.5449
      2 O1G        -5.7926   -9.1917    2.7030 O.co2     1 ATP        -0.8177
      3 O2G        -3.6413   -8.5519    4.0736 O.co2     1 ATP        -0.8177
      4 O3G        -3.4896  -10.0397    2.0022 O.3       1 ATP        -0.7779
      5 PB         -3.9091   -6.0343    1.9374 P.3       1 ATP         1.9141
      6 O1B        -3.6258   -5.2387    0.6974 O.2       1 ATP        -0.8754
      7 O2B        -5.2808   -5.6426    2.6981 O.3       1 ATP        -0.8083
      8 O3B        -4.0281   -7.6303    1.7173 O.3       1 ATP        -0.8025
      9 PA         -1.2163   -6.3334    3.1041 P.3       1 ATP         1.8015
     10 O1A        -0.9116   -7.7743    2.8129 O.2       1 ATP        -0.8201
     11 O2A        -0.6988   -5.8232    4.5497 O.3       1 ATP        -0.8103
     12 O3A        -2.7840   -5.9434    3.0925 O.3       1 ATP        -0.8038
     13 O5'        -0.5702   -5.2849    2.0530 O.3       1 ATP        -0.5730
     14 C5'        -0.7840   -3.8935    2.2172 C.3       1 ATP         0.1929
     15 C4'        -0.0724   -3.1466    1.1027 C.3       1 ATP         0.1044
     16 O4'        -0.8674   -3.1929   -0.0945 O.3       1 ATP        -0.4079
     17 C3'         0.1338   -1.6715    1.4027 C.3       1 ATP         0.1439
     18 O3'         1.2893   -1.4445    2.1808 O.3       1 ATP        -0.5593
     19 C2'         0.2158   -1.0724    0.0128 C.3       1 ATP         0.0644
     20 O2'         1.5141   -1.2448   -0.5513 O.3       1 ATP        -0.5595
     21 C1'        -0.7897   -1.9176   -0.7583 C.3       1 ATP         0.3792
     22 N9         -2.1040   -1.3333   -0.7704 N.pl3     1 ATP        -0.5557
     23 C8         -3.2304   -1.8262   -0.2767 C.ar      1 ATP         0.2849
     24 N7         -4.2847   -1.0309   -0.4481 N.pl3     1 ATP        -0.5117
     25 C5         -3.7951    0.0479   -1.0985 C.ar      1 ATP        -0.2787
     26 C6         -4.3691    1.1983   -1.5536 C.ar      1 ATP         0.7736
     27 N6         -5.7501    1.4047   -1.3573 N.pl3     1 ATP        -0.9480
     28 N1         -3.6289    2.1345   -2.1869 N.ar      1 ATP        -0.7442
     29 C2         -2.3041    1.8525   -2.3333 C.ar      1 ATP         0.7202
     30 N3         -1.6387    0.7492   -1.9218 N.ar      1 ATP        -0.6957
     31 C4         -2.4348   -0.1293   -1.3053 C.ar      1 ATP         0.6231
     32 HOG3       -2.5128   -9.9665    1.9508 H         1 ATP         0.4452
     33 HOB2       -6.1315   -5.7303    2.2178 H         1 ATP         0.4969
     34 HOA2       -1.0393   -6.2633    5.3575 H         1 ATP         0.4779
     35 H5'1       -1.8600   -3.6936    2.1849 H         1 ATP         0.0280
     36 H5'2       -0.3935   -3.5871    3.1930 H         1 ATP         0.0280
     37 H4'         0.8886   -3.6448    0.8780 H         1 ATP         0.2049
     38 H3'        -0.7373   -1.2358    1.9870 H         1 ATP         0.1077
     39 HO3'        1.3408   -0.4870    2.3219 H         1 ATP         0.4255
     40 H2'        -0.0384   -0.0310    0.0096 H         1 ATP         0.0584
     41 HO2'        1.4998   -0.8412   -1.4369 H         1 ATP         0.4149
     42 H1'        -0.4769   -2.1002   -1.8093 H         1 ATP         0.1459
     43 H8         -3.2974   -2.7789    0.2194 H         1 ATP         0.2739
     44 HN61       -6.2956    0.6838   -0.9296 H         1 ATP         0.4605
     45 HN62       -6.1788    2.2266   -1.7327 H         1 ATP         0.4605
     46 H2         -1.7135    2.6057   -2.8421 H         1 ATP         0.0904
     47 H47        -5.2337   -1.2102   -0.1507 H         1 ATP         0.5017
@<TRIPOS>BOND
     1    1    2 2
     2    1    3 1
     3    1    4 1
     4    1    8 1
     5    4   32 1
     6    5    6 2
     7    5    7 1
     8    5    8 1
     9    5   12 1
    10    7   33 1
    11    9   10 2
    12    9   11 1
    13    9   12 1
    14    9   13 1
    15   11   34 1
    16   13   14 1
    17   14   15 1
    18   14   35 1
    19   14   36 1
    20   15   16 1
    21   15   17 1
    22   15   37 1
    23   16   21 1
    24   17   18 1
    25   17   19 1
    26   17   38 1
    27   18   39 1
    28   19   20 1
    29   19   21 1
    30   19   40 1
    31   20   41 1
    32   21   22 1
    33   21   42 1
    34   22   23 ar
    35   22   31 ar
    36   23   24 ar
    37   23   43 1
    38   24   25 ar
    39   24   47 1
    40   25   26 ar
    41   25   31 ar
    42   26   27 1
    43   26   28 ar
    44   27   44 1
    45   27   45 1
    46   28   29 ar
    47   29   30 ar
    48   29   46 1
    49   30   31 ar
@<TRIPOS>SUBSTRUCTURE
     1 ATP         1 GROUP 0 A     ****
@<TRIPOS>MOLECULE
[[[5-(6-amino-7,8-dihydropurin-8-ylium-9-yl)-3,4-dihydroxy-tetrahydrofuran-2-yl]methoxy-hydroxy-phosphoryl]oxy-hydroxy-phosphoryl] hydrogen phosphate
   47    49     1     0     0
SMALL
USER_CHARGES

@<TRIPOS>ATOM
      1 PG          7.1330   -4.6696   -3.5042 P.3       1 ATP         1.5449
      2 O1G         7.2446   -5.0159   -2.0360 O.co2     1 ATP        -0.8177
      3 O2G         8.3422   -4.2003   -4.2824 O.co2     1 ATP        -0.8177
      4 O3G         6.4736   -5.9425   -4.2856 O.3       1 ATP        -0.7779
      5 PB          5.7658   -2.0570   -3.2161 P.3       1 ATP         1.9141
      6 O1B         5.8302   -1.8424   -1.7326 O.2       1 ATP        -0.8754
      7 O2B         6.8877   -1.2630   -4.0672 O.3       1 ATP        -0.8083
      8 O3B         5.9264   -3.5912   -3.6959 O.3       1 ATP        -0.8025
      9 PA          2.8569   -2.1455   -3.6982 P.3       1 ATP         1.8015
     10 O1A         2.6294   -3.6082   -3.9481 O.2       1 ATP        -0.8201
     11 O2A         1.9764   -1.1656   -4.6375 O.3       1 ATP        -0.8103
     12 O3A         4.3739   -1.6354   -3.9184 O.3       1 ATP        -0.8038
     13 O5'         2.5233   -1.6623   -2.1893 O.3       1 ATP        -0.5730
     14 C5'         2.2816   -0.2918   -1.9206 C.3       1 ATP         0.1929
     15 C4'         2.7248    0.0226   -0.4980 C.3       1 ATP         0.1044
     16 O4'         2.4697    1.4219   -0.2462 O.3       1 ATP        -0.4079
     17 C3'         1.9404   -0.7419    0.5596 C.3       1 ATP         0.1439
     18 O3'         2.7418   -0.8086    1.7389 O.3       1 ATP        -0.5593
     19 C2'         0.7477    0.1630    0.7858 C.3       1 ATP         0.0644
     20 O2'         0.1373   -0.0577    2.0407 O.3       1 ATP        -0.5595
     21 C1'         1.3733    1.5427    0.6747 C.3       1 ATP         0.3792
     22 N9          0.4520    2.5240    0.1767 N.pl3     1 ATP        -0.5557
     23 C8         -0.3477    3.3274    0.8626 C.ar      1 ATP         0.2849
     24 N7         -1.0836    4.1323    0.0983 N.pl3     1 ATP        -0.5117
     25 C5         -0.7273    3.8194   -1.1674 C.ar      1 ATP        -0.2787
     26 C6         -1.1208    4.2877   -2.3863 C.ar      1 ATP         0.7736
     27 N6         -2.0932    5.3066   -2.4528 N.pl3     1 ATP        -0.9480
     28 N1         -0.5892    3.7853   -3.5223 N.ar      1 ATP        -0.7442
     29 C2          0.3427    2.8040   -3.3648 C.ar      1 ATP         0.7202
     30 N3          0.8012    2.2709   -2.2093 N.ar      1 ATP        -0.6957
     31 C4          0.2307    2.8167   -1.1312 C.ar      1 ATP         0.6231
     32 HOG3        6.3339   -5.8746   -5.2542 H         1 ATP         0.4452
     33 HOB2        7.8351   -1.4454   -3.8901 H         1 ATP         0.4969
     34 HOA2        0.9981   -1.2222   -4.5961 H         1 ATP         0.4779
     35 H5'1        2.8428    0.3149   -2.6387 H         1 ATP         0.0280
     36 H5'2        1.2124   -0.0897   -2.0417 H         1 ATP         0.0280
     37 H4'         3.8049   -0.1388   -0.4009 H         1 ATP         0.2049
     38 H3'         1.6783   -1.7629    0.2715 H         1 ATP         0.1077
     39 HO3'        2.2232   -1.2979    2.3953 H         1 ATP         0.4255
     40 H2'        -0.0011    0.0027    0.0003 H         1 ATP         0.0584
     41 HO2'       -0.6141    0.5574    2.1082 H         1 ATP         0.4149
     42 H1'         1.7826    1.9024    1.6451 H         1 ATP         0.1459
     43 H8         -0.4040    3.3373    1.9373 H         1 ATP         0.2739
     44 HN61       -2.5133    5.6366   -1.6073 H         1 ATP         0.4605
     45 HN62       -2.4153    5.6161   -3.3477 H         1 ATP         0.4605
     46 H2          0.7668    2.4032   -4.2782 H         1 ATP         0.0904
     47 H47        -1.7549    4.8194    0.4122 H         1 ATP         0.5017
@<TRIPOS>BOND
     1    1    2 2
     2    1    3 1
     3    1    4 1
     4    1    8 1
     5    4   32 1
     6    5    6 2
     7    5    7 1
     8    5    8 1
     9    5   12 1
    10    7   33 1
    11    9   10 2
    12    9   11 1
    13    9   12 1
    14    9   13 1
    15   11   34 1
    16   13   14 1
    17   14   15 1
    18   14   35 1
    19   14   36 1
    20   15   16 1
    21   15   17 1
    22   15   37 1
    23   16   21 1
    24   17   18 1
    25   17   19 1
    26   17   38 1
    27   18   39 1
    28   19   20 1
    29   19   21 1
    30   19   40 1
    31   20   41 1
    32   21   22 1
    33   21   42 1
    34   22   23 ar
    35   22   31 ar
    36   23   24 ar
    37   23   43 1
    38   24   25 ar
    39   24   47 1
    40   25   26 ar
    41   25   31 ar
    42   26   27 1
    43   26   28 ar
    44   27   44 1
    45   27   45 1
    46   28   29 ar
    47   29   30 ar
    48   29   46 1
    49   30   31 ar
@<TRIPOS>SUBSTRUCTURE
     1 ATP         1 GROUP 0 A     ****
@<TRIPOS>MOLECULE
[[[5-(6-amino-7,8-dihydropurin-8-ylium-9-yl)-3,4-dihydroxy-tetrahydrofuran-2-yl]methoxy-hydroxy-phosphoryl]oxy-hydroxy-phosphoryl] hydrogen phosphate
   47    49     1     0     0
SMALL
USER_CHARGES

@<TRIPOS>ATOM
      1 PG         -1.4357   -1.0754   -4.4624 P.3       1 ATP         1.5449
      2 O1G        -0.5657   -0.1784   -3.6101 O.co2     1 ATP        -0.8177
      3 O2G        -2.4476   -2.0026   -3.8266 O.co2     1 ATP        -0.8177
      4 O3G        -2.2010   -0.1509   -5.5694 O.3       1 ATP        -0.7779
      5 PB          1.0160   -1.6727   -6.0150 P.3       1 ATP         1.9141
      6 O1B         1.5533   -2.7324   -6.9311 O.2       1 ATP        -0.8754
      7 O2B         0.9344   -0.1930   -6.6610 O.3       1 ATP        -0.8083
      8 O3B        -0.4775   -1.9379   -5.4592 O.3       1 ATP        -0.8025
      9 PA          2.1863   -2.4516   -3.4216 P.3       1 ATP         1.8015
     10 O1A         2.9721   -3.6759   -3.7924 O.2       1 ATP        -0.8201
     11 O2A         0.7440   -2.7630   -2.7578 O.3       1 ATP        -0.8103
     12 O3A         1.8439   -1.4543   -4.6456 O.3       1 ATP        -0.8038
     13 O5'         2.9195   -1.4814   -2.3527 O.3       1 ATP        -0.5730
     14 C5'         2.2816   -0.2918   -1.9206 C.3       1 ATP         0.1929
     15 C4'         2.7248    0.0226   -0.4980 C.3       1 ATP         0.1044
     16 O4'         2.4697    1.4219   -0.2462 O.3       1 ATP        -0.4079
     17 C3'         1.9404   -0.7419    0.5596 C.3       1 ATP         0.1439
     18 O3'         2.7418   -0.8086    1.7389 O.3       1 ATP        -0.5593
     19 C2'         0.7477    0.1630    0.7858 C.3       1 ATP         0.0644
     20 O2'         0.1373   -0.0577    2.0407 O.3       1 ATP        -0.5595
     21 C1'         1.3733    1.5427    0.6747 C.3       1 ATP         0.3792
     22 N9          0.4520    2.5240    0.1767 N.pl3     1 ATP        -0.5557
     23 C8          0.5305    3.2394   -0.9358 C.ar      1 ATP         0.2849
     24 N7         -0.4966    4.0680   -1.1145 N.pl3     1 ATP        -0.5117
     25 C5         -1.2879    3.8664   -0.0375 C.ar      1 ATP        -0.2787
     26 C6         -2.4754    4.4084    0.3577 C.ar      1 ATP         0.7736
     27 N6         -3.0892    5.3882   -0.4495 N.pl3     1 ATP        -0.9480
     28 N1         -3.0632    4.0158    1.5092 N.ar      1 ATP        -0.7442
     29 C2         -2.4008    3.0654    2.2262 C.ar      1 ATP         0.7202
     30 N3         -1.2259    2.4663    1.9260 N.ar      1 ATP        -0.6957
     31 C4         -0.7062    2.9047    0.7757 C.ar      1 ATP         0.6231
     32 HOG3       -2.8083   -0.5881   -6.2036 H         1 ATP         0.4452
     33 HOB2        0.3806   -0.0531   -7.4583 H         1 ATP         0.4969
     34 HOA2        0.0836   -3.2711   -3.2754 H         1 ATP         0.4779
     35 H5'1        2.5577    0.5243   -2.5962 H         1 ATP         0.0280
     36 H5'2        1.1971   -0.4362   -1.9603 H         1 ATP         0.0280
     37 H4'         3.8049   -0.1388   -0.4009 H         1 ATP         0.2049
     38 H3'         1.6783   -1.7629    0.2715 H         1 ATP         0.1077
     39 HO3'        2.2232   -1.2979    2.3953 H         1 ATP         0.4255
     40 H2'        -0.0011    0.0027    0.0003 H         1 ATP         0.0584
     41 HO2'       -0.1563   -0.9855    2.0596 H         1 ATP         0.4149
     42 H1'         1.7826    1.9024    1.6451 H         1 ATP         0.1459
     43 H8          1.3437    3.1645   -1.6367 H         1 ATP         0.2739
     44 HN61       -2.6210    5.7042   -1.2748 H         1 ATP         0.4605
     45 HN62       -3.9356    5.8187   -0.1356 H         1 ATP         0.4605
     46 H2         -2.8752    2.7532    3.1495 H         1 ATP         0.0904
     47 H47        -0.6372    4.7004   -1.8900 H         1 ATP         0.5017
@<TRIPOS>BOND
     1    1    2 2
     2    1    3 1
     3    1    4 1
     4    1    8 1
     5    4   32 1
     6    5    6 2
     7    5    7 1
     8    5    8 1
     9    5   12 1
    10    7   33 1
    11    9   10 2
    12    9   11 1
    13    9   12 1
    14    9   13 1
    15   11   34 1
    16   13   14 1
    17   14   15 1
    18   14   35 1
    19   14   36 1
    20   15   16 1
    21   15   17 1
    22   15   37 1
    23   16   21 1
    24   17   18 1
    25   17   19 1
    26   17   38 1
    27   18   39 1
    28   19   20 1
    29   19   21 1
    30   19   40 1
    31   20   41 1
    32   21   22 1
    33   21   42 1
    34   22   23 ar
    35   22   31 ar
    36   23   24 ar
    37   23   43 1
    38   24   25 ar
    39   24   47 1
    40   25   26 ar
    41   25   31 ar
    42   26   27 1
    43   26   28 ar
    44   27   44 1
    45   27   45 1
    46   28   29 ar
    47   29   30 ar
    48   29   46 1
    49   30   31 ar
@<TRIPOS>SUBSTRUCTURE
     1 ATP         1 GROUP 0 A     ****
@<TRIPOS>MOLECULE
[[[5-(6-amino-7,8-dihydropurin-8-ylium-9-yl)-3,4-dihydroxy-tetrahydrofuran-2-yl]methoxy-hydroxy-phosphoryl]oxy-hydroxy-phosphoryl] hydrogen phosphate
   47    49     1     0     0
SMALL
USER_CHARGES

@<TRIPOS>ATOM
      1 PG          4.4617   -3.3845   -6.7229 P.3       1 ATP         1.5449
      2 O1G         2.9732   -3.6033   -6.5668 O.co2     1 ATP        -0.8177
      3 O2G         5.4016   -4.5564   -6.8990 O.co2     1 ATP        -0.8177
      4 O3G         4.7028   -2.3354   -7.9505 O.3       1 ATP        -0.7779
      5 PB          4.4913   -1.0337   -4.9198 P.3       1 ATP         1.9141
      6 O1B         5.2556   -0.5156   -3.7373 O.2       1 ATP        -0.8754
      7 O2B         4.5147   -0.0719   -6.2191 O.3       1 ATP        -0.8083
      8 O3B         4.9866   -2.4637   -5.4850 O.3       1 ATP        -0.8025
      9 PA          2.1471   -2.2827   -3.6367 P.3       1 ATP         1.8015
     10 O1A         2.4550   -3.7444   -3.7865 O.2       1 ATP        -0.8201
     11 O2A         0.5865   -1.9075   -3.8410 O.3       1 ATP        -0.8103
     12 O3A         2.9198   -1.3056   -4.6653 O.3       1 ATP        -0.8038
     13 O5'         2.5233   -1.6623   -2.1893 O.3       1 ATP        -0.5730
     14 C5'         2.2816   -0.2918   -1.9206 C.3       1 ATP         0.1929
     15 C4'         2.7248    0.0226   -0.4980 C.3       1 ATP         0.1044
     16 O4'         2.4697    1.4219   -0.2462 O.3       1 ATP        -0.4079
     17 C3'         1.9404   -0.7419    0.5596 C.3       1 ATP         0.1439
     18 O3'         2.7418   -0.8086    1.7389 O.3       1 ATP        -0.5593
     19 C2'         0.7477    0.1630    0.7858 C.3       1 ATP         0.0644
     20 O2'         0.1373   -0.0577    2.0407 O.3       1 ATP        -0.5595
     21 C1'         1.3733    1.5427    0.6747 C.3       1 ATP         0.3792
     22 N9          0.4520    2.5240    0.1767 N.pl3     1 ATP        -0.5557
     23 C8         -0.3477    3.3274    0.8626 C.ar      1 ATP         0.2849
     24 N7         -1.0836    4.1323    0.0983 N.pl3     1 ATP        -0.5117
     25 C5         -0.7273    3.8194   -1.1674 C.ar      1 ATP        -0.2787
     26 C6         -1.1208    4.2877   -2.3863 C.ar      1 ATP         0.7736
     27 N6         -2.0932    5.3066   -2.4528 N.pl3     1 ATP        -0.9480
     28 N1         -0.5892    3.7853   -3.5223 N.ar      1 ATP        -0.7442
     29 C2          0.3427    2.8040   -3.3648 C.ar      1 ATP         0.7202
     30 N3          0.8012    2.2709   -2.2093 N.ar      1 ATP        -0.6957
     31 C4          0.2307    2.8167   -1.1312 C.ar      1 ATP         0.6231
     32 HOG3        5.6241   -2.0883   -8.1796 H         1 ATP         0.4452
     33 HOB2        5.3771    0.1473   -6.6318 H         1 ATP         0.4969
     34 HOA2       -0.0800   -2.3109   -3.2451 H         1 ATP         0.4779
     35 H5'1        2.8428    0.3149   -2.6387 H         1 ATP         0.0280
     36 H5'2        1.2124   -0.0897   -2.0417 H         1 ATP         0.0280
     37 H4'         3.8049   -0.1388   -0.4009 H         1 ATP         0.2049
     38 H3'         1.6783   -1.7629    0.2715 H         1 ATP         0.1077
     39 HO3'        2.2232   -1.2979    2.3953 H         1 ATP         0.4255
     40 H2'        -0.0011    0.0027    0.0003 H         1 ATP         0.0584
     41 HO2'       -0.6141    0.5574    2.1082 H         1 ATP         0.4149
     42 H1'         1.7826    1.9024    1.6451 H         1 ATP         0.1459
     43 H8         -0.4040    3.3373    1.9373 H         1 ATP         0.2739
     44 HN61       -2.5133    5.6366   -1.6073 H         1 ATP         0.4605
     45 HN62       -2.4153    5.6161   -3.3477 H         1 ATP         0.4605
     46 H2          0.7668    2.4032   -4.2782 H         1 ATP         0.0904
     47 H47        -1.7549    4.8194    0.4122 H         1 ATP         0.5017
@<TRIPOS>BOND
     1    1    2 2
     2    1    3 1
     3    1    4 1
     4    1    8 1
     5    4   32 1
     6    5    6 2
     7    5    7 1
     8    5    8 1
     9    5   12 1
    10    7   33 1
    11    9   10 2
    12    9   11 1
    13    9   12 1
    14    9   13 1
    15   11   34 1
    16   13   14 1
    17   14   15 1
    18   14   35 1
    19   14   36 1
    20   15   16 1
    21   15   17 1
    22   15   37 1
    23   16   21 1
    24   17   18 1
    25   17   19 1
    26   17   38 1
    27   18   39 1
    28   19   20 1
    29   19   21 1
    30   19   40 1
    31   20   41 1
    32   21   22 1
    33   21   42 1
    34   22   23 ar
    35   22   31 ar
    36   23   24 ar
    37   23   43 1
    38   24   25 ar
    39   24   47 1
    40   25   26 ar
    41   25   31 ar
    42   26   27 1
    43   26   28 ar
    44   27   44 1
    45   27   45 1
    46   28   29 ar
    47   29   30 ar
    48   29   46 1
    49   30   31 ar
@<TRIPOS>SUBSTRUCTURE
     1 ATP         1 GROUP 0 A     ****
@<TRIPOS>MOLECULE
[[[5-(6-amino-7,8-dihydropurin-8-ylium-9-yl)-3,4-dihydroxy-tetrahydrofuran-2-yl]methoxy-hydroxy-phosphoryl]oxy-hydroxy-phosphoryl] hydrogen phosphate
   47    49     1     0     0
SMALL
USER_CHARGES

@<TRIPOS>ATOM
      1 PG         -0.3378    2.8510   -6.5056 P.3       1 ATP         1.5449
      2 O1G        -1.6575    3.5735   -6.3490 O.co2     1 ATP        -0.8177
      3 O2G        -0.2972    1.3903   -6.8963 O.co2     1 ATP        -0.8177
      4 O3G         0.5912    3.6947   -7.5501 O.3       1 ATP        -0.7779
      5 PB          2.0581    2.6662   -4.7725 P.3       1 ATP         1.9141
      6 O1B         3.1116    3.2845   -5.6437 O.2       1 ATP        -0.8754
      7 O2B         2.1784    3.0258   -3.2009 O.3       1 ATP        -0.8083
      8 O3B         0.5375    3.0623   -5.1473 O.3       1 ATP        -0.8025
      9 PA          3.0863   -0.0757   -4.4171 P.3       1 ATP         1.8015
     10 O1A         4.3570   -0.0352   -5.2156 O.2       1 ATP        -0.8201
     11 O2A         2.2680   -1.4661   -4.5396 O.3       1 ATP        -0.8103
     12 O3A         1.9950    1.0527   -4.7988 O.3       1 ATP        -0.8038
     13 O5'         3.2874    0.1332   -2.8242 O.3       1 ATP        -0.5730
     14 C5'         2.2816   -0.2918   -1.9206 C.3       1 ATP         0.1929
     15 C4'         2.7248    0.0226   -0.4980 C.3       1 ATP         0.1044
     16 O4'         2.4697    1.4219   -0.2462 O.3       1 ATP        -0.4079
     17 C3'         1.9404   -0.7419    0.5596 C.3       1 ATP         0.1439
     18 O3'         2.7418   -0.8086    1.7389 O.3       1 ATP        -0.5593
     19 C2'         0.7477    0.1630    0.7858 C.3       1 ATP         0.0644
     20 O2'         0.1373   -0.0577    2.0407 O.3       1 ATP        -0.5595
     21 C1'         1.3733    1.5427    0.6747 C.3       1 ATP         0.3792
     22 N9          0.4520    2.5240    0.1767 N.pl3     1 ATP        -0.5557
     23 C8          0.1928    2.8484   -1.0815 C.ar      1 ATP         0.2849
     24 N7         -0.7248    3.8048   -1.2110 N.pl3     1 ATP        -0.5117
     25 C5         -1.0765    4.1129    0.0571 C.ar      1 ATP        -0.2787
     26 C6         -1.9614    5.0063    0.5851 C.ar      1 ATP         0.7736
     27 N6         -2.7145    5.8254   -0.2810 N.pl3     1 ATP        -0.9480
     28 N1         -2.1199    5.1113    1.9228 N.ar      1 ATP        -0.7442
     29 C2         -1.3522    4.2822    2.6839 C.ar      1 ATP         0.7202
     30 N3         -0.4501    3.3660    2.2638 N.ar      1 ATP        -0.6957
     31 C4         -0.3487    3.3198    0.9322 C.ar      1 ATP         0.6231
     32 HOG3        1.4867    3.3534   -7.7593 H         1 ATP         0.4452
     33 HOB2        2.9947    2.7758   -2.7180 H         1 ATP         0.4969
     34 HOA2        2.7034   -2.2988   -4.2585 H         1 ATP         0.4779
     35 H5'1        1.3494    0.2323   -2.1552 H         1 ATP         0.0280
     36 H5'2        2.1260   -1.3686   -2.0436 H         1 ATP         0.0280
     37 H4'         3.8049   -0.1388   -0.4009 H         1 ATP         0.2049
     38 H3'         1.6783   -1.7629    0.2715 H         1 ATP         0.1077
     39 HO3'        3.5554   -1.2733    1.4914 H         1 ATP         0.4255
     40 H2'        -0.0011    0.0027    0.0003 H         1 ATP         0.0584
     41 HO2'       -0.1563   -0.9855    2.0596 H         1 ATP         0.4149
     42 H1'         1.7826    1.9024    1.6451 H         1 ATP         0.1459
     43 H8          0.6728    2.3873   -1.9272 H         1 ATP         0.2739
     44 HN61       -2.5537    5.7714   -1.2667 H         1 ATP         0.4605
     45 HN62       -3.3283    6.5126    0.1080 H         1 ATP         0.4605
     46 H2         -1.4818    4.3694    3.7565 H         1 ATP         0.0904
     47 H47        -1.0701    4.2005   -2.0743 H         1 ATP         0.5017
@<TRIPOS>BOND
     1    1    2 2
     2    1    3 1
     3    1    4 1
     4    1    8 1
     5    4   32 1
     6    5    6 2
     7    5    7 1
     8    5    8 1
     9    5   12 1
    10    7   33 1
    11    9   10 2
    12    9   11 1
    13    9   12 1
    14    9   13 1
    15   11   34 1
    16   13   14 1
    17   14   15 1
    18   14   35 1
    19   14   36 1
    20   15   16 1
    21   15   17 1
    22   15   37 1
    23   16   21 1
    24   17   18 1
    25   17   19 1
    26   17   38 1
    27   18   39 1
    28   19   20 1
    29   19   21 1
    30   19   40 1
    31   20   41 1
    32   21   22 1
    33   21   42 1
    34   22   23 ar
    35   22   31 ar
    36   23   24 ar
    37   23   43 1
    38   24   25 ar
    39   24   47 1
    40   25   26 ar
    41   25   31 ar
    42   26   27 1
    43   26   28 ar
    44   27   44 1
    45   27   45 1
    46   28   29 ar
    47   29   30 ar
    48   29   46 1
    49   30   31 ar
@<TRIPOS>SUBSTRUCTURE
     1 ATP         1 GROUP 0 A     ****
@<TRIPOS>MOLECULE
[[[5-(6-amino-7,8-dihydropurin-8-ylium-9-yl)-3,4-dihydroxy-tetrahydrofuran-2-yl]methoxy-hydroxy-phosphoryl]oxy-hydroxy-phosphoryl] hydrogen phosphate
   47    49     1     0     0
SMALL
USER_CHARGES

@<TRIPOS>ATOM
      1 PG          0.2408   -0.3809   -7.8557 P.3       1 ATP         1.5449
      2 O1G        -1.0721   -1.0990   -7.6349 O.co2     1 ATP        -0.8177
      3 O2G         1.0432   -0.6066   -9.1178 O.co2     1 ATP        -0.8177
      4 O3G        -0.0125    1.2224   -7.6801 O.3       1 ATP        -0.7779
      5 PB          2.8042   -0.5800   -6.3834 P.3       1 ATP         1.9141
      6 O1B         3.5775   -1.5321   -7.2473 O.2       1 ATP        -0.8754
      7 O2B         3.1649    0.9809   -6.5999 O.3       1 ATP        -0.8083
      8 O3B         1.1998   -0.6375   -6.5633 O.3       1 ATP        -0.8025
      9 PA          2.6341   -2.0604   -3.8375 P.3       1 ATP         1.8015
     10 O1A         3.3737   -3.3251   -4.1654 O.2       1 ATP        -0.8201
     11 O2A         1.0234   -2.1932   -3.9140 O.3       1 ATP        -0.8103
     12 O3A         2.9659   -0.7996   -4.7916 O.3       1 ATP        -0.8038
     13 O5'         2.9195   -1.4814   -2.3527 O.3       1 ATP        -0.5730
     14 C5'         2.2816   -0.2918   -1.9206 C.3       1 ATP         0.1929
     15 C4'         2.7248    0.0226   -0.4980 C.3       1 ATP         0.1044
     16 O4'         2.4697    1.4219   -0.2462 O.3       1 ATP        -0.4079
     17 C3'         1.9404   -0.7419    0.5596 C.3       1 ATP         0.1439
     18 O3'         2.7418   -0.8086    1.7389 O.3       1 ATP        -0.5593
     19 C2'         0.7477    0.1630    0.7858 C.3       1 ATP         0.0644
     20 O2'         0.1373   -0.0577    2.0407 O.3       1 ATP        -0.5595
     21 C1'         1.3733    1.5427    0.6747 C.3       1 ATP         0.3792
     22 N9          0.4520    2.5240    0.1767 N.pl3     1 ATP        -0.5557
     23 C8          0.0623    3.6542    0.7479 C.ar      1 ATP         0.2849
     24 N7         -0.8074    4.3516    0.0193 N.pl3     1 ATP        -0.5117
     25 C5         -0.9855    3.6123   -1.0979 C.ar      1 ATP        -0.2787
     26 C6         -1.7474    3.7860   -2.2156 C.ar      1 ATP         0.7736
     27 N6         -2.5511    4.9389   -2.3303 N.pl3     1 ATP        -0.9480
     28 N1         -1.7375    2.8675   -3.2064 N.ar      1 ATP        -0.7442
     29 C2         -0.9330    1.7853   -3.0121 C.ar      1 ATP         0.7202
     30 N3         -0.1423    1.5179   -1.9478 N.ar      1 ATP        -0.6957
     31 C4         -0.2044    2.4690   -1.0113 C.ar      1 ATP         0.6231
     32 HOG3        0.7487    1.8306   -7.7934 H         1 ATP         0.4452
     33 HOB2        3.0338    1.3798   -7.4863 H         1 ATP         0.4969
     34 HOA2        0.6086   -2.4484   -4.7654 H         1 ATP         0.4779
     35 H5'1        2.5577    0.5243   -2.5962 H         1 ATP         0.0280
     36 H5'2        1.1971   -0.4362   -1.9603 H         1 ATP         0.0280
     37 H4'         3.8049   -0.1388   -0.4009 H         1 ATP         0.2049
     38 H3'         1.6783   -1.7629    0.2715 H         1 ATP         0.1077
     39 HO3'        2.2232   -1.2979    2.3953 H         1 ATP         0.4255
     40 H2'        -0.0011    0.0027    0.0003 H         1 ATP         0.0584
     41 HO2'       -0.6141    0.5574    2.1082 H         1 ATP         0.4149
     42 H1'         1.7826    1.9024    1.6451 H         1 ATP         0.1459
     43 H8          0.4111    3.9873    1.7100 H         1 ATP         0.2739
     44 HN61       -2.5859    5.5874   -1.5698 H         1 ATP         0.4605
     45 HN62       -3.1449    5.0423   -3.1284 H         1 ATP         0.4605
     46 H2         -0.9279    1.0504   -3.8088 H         1 ATP         0.0904
     47 H47        -1.2303    5.2364    0.2633 H         1 ATP         0.5017
@<TRIPOS>BOND
     1    1    2 2
     2    1    3 1
     3    1    4 1
     4    1    8 1
     5    4   32 1
     6    5    6 2
     7    5    7 1
     8    5    8 1
     9    5   12 1
    10    7   33 1
    11    9   10 2
    12    9   11 1
    13    9   12 1
    14    9   13 1
    15   11   34 1
    16   13   14 1
    17   14   15 1
    18   14   35 1
    19   14   36 1
    20   15   16 1
    21   15   17 1
    22   15   37 1
    23   16   21 1
    24   17   18 1
    25   17   19 1
    26   17   38 1
    27   18   39 1
    28   19   20 1
    29   19   21 1
    30   19   40 1
    31   20   41 1
    32   21   22 1
    33   21   42 1
    34   22   23 ar
    35   22   31 ar
    36   23   24 ar
    37   23   43 1
    38   24   25 ar
    39   24   47 1
    40   25   26 ar
    41   25   31 ar
    42   26   27 1
    43   26   28 ar
    44   27   44 1
    45   27   45 1
    46   28   29 ar
    47   29   30 ar
    48   29   46 1
    49   30   31 ar
@<TRIPOS>SUBSTRUCTURE
     1 ATP         1 GROUP 0 A     ****
@<TRIPOS>MOLECULE
[[[5-(6-amino-7,8-dihydropurin-8-ylium-9-yl)-3,4-dihydroxy-tetrahydrofuran-2-yl]methoxy-hydroxy-phosphoryl]oxy-hydroxy-phosphoryl] hydrogen phosphate
   47    49     1     0     0
SMALL
USER_CHARGES

@<TRIPOS>ATOM
      1 PG          4.3527   -4.3321   -6.2884 P.3       1 ATP         1.5449
      2 O1G         5.4007   -4.4592   -7.3717 O.co2     1 ATP        -0.8177
      3 O2G         2.9779   -3.7851   -6.6023 O.co2     1 ATP        -0.8177
      4 O3G         4.1814   -5.7851   -5.5637 O.3       1 ATP        -0.7779
      5 PB          4.8982   -1.9306   -4.6412 P.3       1 ATP         1.9141
      6 O1B         5.6400   -1.5503   -3.3937 O.2       1 ATP        -0.8754
      7 O2B         5.3736   -1.1555   -5.9779 O.3       1 ATP        -0.8083
      8 O3B         4.9873   -3.4924   -5.0442 O.3       1 ATP        -0.8025
      9 PA          2.1471   -2.2827   -3.6367 P.3       1 ATP         1.8015
     10 O1A         2.0004   -3.7767   -3.6545 O.2       1 ATP        -0.8201
     11 O2A         0.8165   -1.4786   -4.0847 O.3       1 ATP        -0.8103
     12 O3A         3.3016   -1.6910   -4.5994 O.3       1 ATP        -0.8038
     13 O5'         2.5233   -1.6623   -2.1893 O.3       1 ATP        -0.5730
     14 C5'         2.2816   -0.2918   -1.9206 C.3       1 ATP         0.1929
     15 C4'         2.7248    0.0226   -0.4980 C.3       1 ATP         0.1044
     16 O4'         2.4697    1.4219   -0.2462 O.3       1 ATP        -0.4079
     17 C3'         1.9404   -0.7419    0.5596 C.3       1 ATP         0.1439
     18 O3'         2.7418   -0.8086    1.7389 O.3       1 ATP        -0.5593
     19 C2'         0.7477    0.1630    0.7858 C.3       1 ATP         0.0644
     20 O2'         0.1373   -0.0577    2.0407 O.3       1 ATP        -0.5595
     21 C1'         1.3733    1.5427    0.6747 C.3       1 ATP         0.3792
     22 N9          0.4520    2.5240    0.1767 N.pl3     1 ATP        -0.5557
     23 C8         -0.3477    3.3274    0.8626 C.ar      1 ATP         0.2849
     24 N7         -1.0836    4.1323    0.0983 N.pl3     1 ATP        -0.5117
     25 C5         -0.7273    3.8194   -1.1674 C.ar      1 ATP        -0.2787
     26 C6         -1.1208    4.2877   -2.3863 C.ar      1 ATP         0.7736
     27 N6         -2.0932    5.3066   -2.4528 N.pl3     1 ATP        -0.9480
     28 N1         -0.5892    3.7853   -3.5223 N.ar      1 ATP        -0.7442
     29 C2          0.3427    2.8040   -3.3648 C.ar      1 ATP         0.7202
     30 N3          0.8012    2.2709   -2.2093 N.ar      1 ATP        -0.6957
     31 C4          0.2307    2.8167   -1.1312 C.ar      1 ATP         0.6231
     32 HOG3        3.5326   -5.8688   -4.8328 H         1 ATP         0.4452
     33 HOB2        6.3039   -1.2479   -6.2747 H         1 ATP         0.4969
     34 HOA2        0.4510   -1.6295   -4.9823 H         1 ATP         0.4779
     35 H5'1        2.8428    0.3149   -2.6387 H         1 ATP         0.0280
     36 H5'2        1.2124   -0.0897   -2.0417 H         1 ATP         0.0280
     37 H4'         3.8049   -0.1388   -0.4009 H         1 ATP         0.2049
     38 H3'         1.6783   -1.7629    0.2715 H         1 ATP         0.1077
     39 HO3'        2.2232   -1.2979    2.3953 H         1 ATP         0.4255
     40 H2'        -0.0011    0.0027    0.0003 H         1 ATP         0.0584
     41 HO2'       -0.6141    0.5574    2.1082 H         1 ATP         0.4149
     42 H1'         1.7826    1.9024    1.6451 H         1 ATP         0.1459
     43 H8         -0.4040    3.3373    1.9373 H         1 ATP         0.2739
     44 HN61       -2.3467    5.6821   -3.3445 H         1 ATP         0.4605
     45 HN62       -2.4443    5.7023   -1.6040 H         1 ATP         0.4605
     46 H2          0.7668    2.4032   -4.2782 H         1 ATP         0.0904
     47 H47        -1.7549    4.8194    0.4122 H         1 ATP         0.5017
@<TRIPOS>BOND
     1    1    2 2
     2    1    3 1
     3    1    4 1
     4    1    8 1
     5    4   32 1
     6    5    6 2
     7    5    7 1
     8    5    8 1
     9    5   12 1
    10    7   33 1
    11    9   10 2
    12    9   11 1
    13    9   12 1
    14    9   13 1
    15   11   34 1
    16   13   14 1
    17   14   15 1
    18   14   35 1
    19   14   36 1
    20   15   16 1
    21   15   17 1
    22   15   37 1
    23   16   21 1
    24   17   18 1
    25   17   19 1
    26   17   38 1
    27   18   39 1
    28   19   20 1
    29   19   21 1
    30   19   40 1
    31   20   41 1
    32   21   22 1
    33   21   42 1
    34   22   23 ar
    35   22   31 ar
    36   23   24 ar
    37   23   43 1
    38   24   25 ar
    39   24   47 1
    40   25   26 ar
    41   25   31 ar
    42   26   27 1
    43   26   28 ar
    44   27   44 1
    45   27   45 1
    46   28   29 ar
    47   29   30 ar
    48   29   46 1
    49   30   31 ar
@<TRIPOS>SUBSTRUCTURE
     1 ATP         1 GROUP 0 A     ****
@<TRIPOS>MOLECULE
[[[5-(6-amino-7,8-dihydropurin-8-ylium-9-yl)-3,4-dihydroxy-tetrahydrofuran-2-yl]methoxy-hydroxy-phosphoryl]oxy-hydroxy-phosphoryl] hydrogen phosphate
   47    49     1     0     0
SMALL
USER_CHARGES

@<TRIPOS>ATOM
      1 PG          4.3527   -4.3321   -6.2884 P.3       1 ATP         1.5449
      2 O1G         4.6253   -5.8037   -6.0688 O.co2     1 ATP        -0.8177
      3 O2G         4.7401   -3.6589   -7.5863 O.co2     1 ATP        -0.8177
      4 O3G         2.7680   -4.0542   -6.0110 O.3       1 ATP        -0.7779
      5 PB          4.8982   -1.9306   -4.6412 P.3       1 ATP         1.9141
      6 O1B         5.6400   -1.5503   -3.3937 O.2       1 ATP        -0.8754
      7 O2B         5.3736   -1.1555   -5.9779 O.3       1 ATP        -0.8083
      8 O3B         4.9873   -3.4924   -5.0442 O.3       1 ATP        -0.8025
      9 PA          2.1471   -2.2827   -3.6367 P.3       1 ATP         1.8015
     10 O1A         2.0004   -3.7767   -3.6545 O.2       1 ATP        -0.8201
     11 O2A         0.8165   -1.4786   -4.0847 O.3       1 ATP        -0.8103
     12 O3A         3.3016   -1.6910   -4.5994 O.3       1 ATP        -0.8038
     13 O5'         2.5233   -1.6623   -2.1893 O.3       1 ATP        -0.5730
     14 C5'         2.2816   -0.2918   -1.9206 C.3       1 ATP         0.1929
     15 C4'         2.7248    0.0226   -0.4980 C.3       1 ATP         0.1044
     16 O4'         2.4697    1.4219   -0.2462 O.3       1 ATP        -0.4079
     17 C3'         1.9404   -0.7419    0.5596 C.3       1 ATP         0.1439
     18 O3'         2.7418   -0.8086    1.7389 O.3       1 ATP        -0.5593
     19 C2'         0.7477    0.1630    0.7858 C.3       1 ATP         0.0644
     20 O2'         0.1373   -0.0577    2.0407 O.3       1 ATP        -0.5595
     21 C1'         1.3733    1.5427    0.6747 C.3       1 ATP         0.3792
     22 N9          0.4520    2.5240    0.1767 N.pl3     1 ATP        -0.5557
     23 C8          0.1928    2.8484   -1.0815 C.ar      1 ATP         0.2849
     24 N7         -0.7248    3.8048   -1.2110 N.pl3     1 ATP        -0.5117
     25 C5         -1.0765    4.1129    0.0571 C.ar      1 ATP        -0.2787
     26 C6         -1.9614    5.0063    0.5851 C.ar      1 ATP         0.7736
     27 N6         -2.7145    5.8254   -0.2810 N.pl3     1 ATP        -0.9480
     28 N1         -2.1199    5.1113    1.9228 N.ar      1 ATP        -0.7442
     29 C2         -1.3522    4.2822    2.6839 C.ar      1 ATP         0.7202
     30 N3         -0.4501    3.3660    2.2638 N.ar      1 ATP        -0.6957
     31 C4         -0.3487    3.3198    0.9322 C.ar      1 ATP         0.6231
     32 HOG3        2.4296   -3.1391   -6.1124 H         1 ATP         0.4452
     33 HOB2        6.3039   -1.2479   -6.2747 H         1 ATP         0.4969
     34 HOA2        0.4510   -1.6295   -4.9823 H         1 ATP         0.4779
     35 H5'1        2.8428    0.3149   -2.6387 H         1 ATP         0.0280
     36 H5'2        1.2124   -0.0897   -2.0417 H         1 ATP         0.0280
     37 H4'         3.8049   -0.1388   -0.4009 H         1 ATP         0.2049
     38 H3'         1.6783   -1.7629    0.2715 H         1 ATP         0.1077
     39 HO3'        2.2232   -1.2979    2.3953 H         1 ATP         0.4255
     40 H2'        -0.0011    0.0027    0.0003 H         1 ATP         0.0584
     41 HO2'       -0.6141    0.5574    2.1082 H         1 ATP         0.4149
     42 H1'         1.7826    1.9024    1.6451 H         1 ATP         0.1459
     43 H8          0.6728    2.3873   -1.9272 H         1 ATP         0.2739
     44 HN61       -3.3968    6.4465    0.1048 H         1 ATP         0.4605
     45 HN62       -2.6221    5.7051   -1.2696 H         1 ATP         0.4605
     46 H2         -1.4818    4.3694    3.7565 H         1 ATP         0.0904
     47 H47        -1.0701    4.2005   -2.0743 H         1 ATP         0.5017
@<TRIPOS>BOND
     1    1    2 2
     2    1    3 1
     3    1    4 1
     4    1    8 1
     5    4   32 1
     6    5    6 2
     7    5    7 1
     8    5    8 1
     9    5   12 1
    10    7   33 1
    11    9   10 2
    12    9   11 1
    13    9   12 1
    14    9   13 1
    15   11   34 1
    16   13   14 1
    17   14   15 1
    18   14   35 1
    19   14   36 1
    20   15   16 1
    21   15   17 1
    22   15   37 1
    23   16   21 1
    24   17   18 1
    25   17   19 1
    26   17   38 1
    27   18   39 1
    28   19   20 1
    29   19   21 1
    30   19   40 1
    31   20   41 1
    32   21   22 1
    33   21   42 1
    34   22   23 ar
    35   22   31 ar
    36   23   24 ar
    37   23   43 1
    38   24   25 ar
    39   24   47 1
    40   25   26 ar
    41   25   31 ar
    42   26   27 1
    43   26   28 ar
    44   27   44 1
    45   27   45 1
    46   28   29 ar
    47   29   30 ar
    48   29   46 1
    49   30   31 ar
@<TRIPOS>SUBSTRUCTURE
     1 ATP         1 GROUP 0 A     ****
@<TRIPOS>MOLECULE
[[[5-(6-amino-7,8-dihydropurin-8-ylium-9-yl)-3,4-dihydroxy-tetrahydrofuran-2-yl]methoxy-hydroxy-phosphoryl]oxy-hydroxy-phosphoryl] hydrogen phosphate
   47    49     1     0     0
SMALL
USER_CHARGES

@<TRIPOS>ATOM
      1 PG          1.8954   -3.7240   -4.9147 P.3       1 ATP         1.5449
      2 O1G         1.5141   -3.0244   -3.6289 O.co2     1 ATP        -0.8177
      3 O2G         3.0903   -4.6500   -4.9665 O.co2     1 ATP        -0.8177
      4 O3G         0.5887   -4.5297   -5.4705 O.3       1 ATP        -0.7779
      5 PB          1.4097   -1.1283   -6.2579 P.3       1 ATP         1.9141
      6 O1B         1.7913   -0.4099   -7.5186 O.2       1 ATP        -0.8754
      7 O2B        -0.1787   -1.3532   -6.0578 O.3       1 ATP        -0.8083
      8 O3B         2.0362   -2.6083   -6.0941 O.3       1 ATP        -0.8025
      9 PA          3.3392   -0.0290   -4.3163 P.3       1 ATP         1.8015
     10 O1A         4.1272    0.9231   -5.1687 O.2       1 ATP        -0.8201
     11 O2A         4.0576   -1.4591   -4.0783 O.3       1 ATP        -0.8103
     12 O3A         1.8781   -0.4177   -4.8854 O.3       1 ATP        -0.8038
     13 O5'         3.0190    0.5130   -2.8246 O.3       1 ATP        -0.5730
     14 C5'         2.2816   -0.2918   -1.9206 C.3       1 ATP         0.1929
     15 C4'         2.7248    0.0226   -0.4980 C.3       1 ATP         0.1044
     16 O4'         2.4697    1.4219   -0.2462 O.3       1 ATP        -0.4079
     17 C3'         1.9404   -0.7419    0.5596 C.3       1 ATP         0.1439
     18 O3'         2.7418   -0.8086    1.7389 O.3       1 ATP        -0.5593
     19 C2'         0.7477    0.1630    0.7858 C.3       1 ATP         0.0644
     20 O2'         0.1373   -0.0577    2.0407 O.3       1 ATP        -0.5595
     21 C1'         1.3733    1.5427    0.6747 C.3       1 ATP         0.3792
     22 N9          0.4520    2.5240    0.1767 N.pl3     1 ATP        -0.5557
     23 C8         -0.3477    3.3274    0.8626 C.ar      1 ATP         0.2849
     24 N7         -1.0836    4.1323    0.0983 N.pl3     1 ATP        -0.5117
     25 C5         -0.7273    3.8194   -1.1674 C.ar      1 ATP        -0.2787
     26 C6         -1.1208    4.2877   -2.3863 C.ar      1 ATP         0.7736
     27 N6         -2.0932    5.3066   -2.4528 N.pl3     1 ATP        -0.9480
     28 N1         -0.5892    3.7853   -3.5223 N.ar      1 ATP        -0.7442
     29 C2          0.3427    2.8040   -3.3648 C.ar      1 ATP         0.7202
     30 N3          0.8012    2.2709   -2.2093 N.ar      1 ATP        -0.6957
     31 C4          0.2307    2.8167   -1.1312 C.ar      1 ATP         0.6231
     32 HOG3        0.6739   -5.0389   -6.3045 H         1 ATP         0.4452
     33 HOB2       -0.6730   -1.8710   -6.7283 H         1 ATP         0.4969
     34 HOA2        4.9345   -1.4819   -3.6394 H         1 ATP         0.4779
     35 H5'1        1.2149   -0.0786   -2.0446 H         1 ATP         0.0280
     36 H5'2        2.4641   -1.3459   -2.1539 H         1 ATP         0.0280
     37 H4'         3.8049   -0.1388   -0.4009 H         1 ATP         0.2049
     38 H3'         1.6783   -1.7629    0.2715 H         1 ATP         0.1077
     39 HO3'        2.2232   -1.2979    2.3953 H         1 ATP         0.4255
     40 H2'        -0.0011    0.0027    0.0003 H         1 ATP         0.0584
     41 HO2'       -0.6141    0.5574    2.1082 H         1 ATP         0.4149
     42 H1'         1.7826    1.9024    1.6451 H         1 ATP         0.1459
     43 H8         -0.4040    3.3373    1.9373 H         1 ATP         0.2739
     44 HN61       -2.5133    5.6366   -1.6073 H         1 ATP         0.4605
     45 HN62       -2.4153    5.6161   -3.3477 H         1 ATP         0.4605
     46 H2          0.7668    2.4032   -4.2782 H         1 ATP         0.0904
     47 H47        -1.7549    4.8194    0.4122 H         1 ATP         0.5017
@<TRIPOS>BOND
     1    1    2 2
     2    1    3 1
     3    1    4 1
     4    1    8 1
     5    4   32 1
     6    5    6 2
     7    5    7 1
     8    5    8 1
     9    5   12 1
    10    7   33 1
    11    9   10 2
    12    9   11 1
    13    9   12 1
    14    9   13 1
    15   11   34 1
    16   13   14 1
    17   14   15 1
    18   14   35 1
    19   14   36 1
    20   15   16 1
    21   15   17 1
    22   15   37 1
    23   16   21 1
    24   17   18 1
    25   17   19 1
    26   17   38 1
    27   18   39 1
    28   19   20 1
    29   19   21 1
    30   19   40 1
    31   20   41 1
    32   21   22 1
    33   21   42 1
    34   22   23 ar
    35   22   31 ar
    36   23   24 ar
    37   23   43 1
    38   24   25 ar
    39   24   47 1
    40   25   26 ar
    41   25   31 ar
    42   26   27 1
    43   26   28 ar
    44   27   44 1
    45   27   45 1
    46   28   29 ar
    47   29   30 ar
    48   29   46 1
    49   30   31 ar
@<TRIPOS>SUBSTRUCTURE
     1 ATP         1 GROUP 0 A     ****
@<TRIPOS>MOLECULE
[[[5-(6-amino-7,8-dihydropurin-8-ylium-9-yl)-3,4-dihydroxy-tetrahydrofuran-2-yl]methoxy-hydroxy-phosphoryl]oxy-hydroxy-phosphoryl] hydrogen phosphate
   47    49     1     0     0
SMALL
USER_CHARGES

@<TRIPOS>ATOM
      1 PG          6.6711   -1.1024   -6.5722 P.3       1 ATP         1.5449
      2 O1G         6.9184   -2.4312   -7.2515 O.co2     1 ATP        -0.8177
      3 O2G         7.6839   -0.5265   -5.6076 O.co2     1 ATP        -0.8177
      4 O3G         6.3544    0.0132   -7.7214 O.3       1 ATP        -0.7779
      5 PB          4.3426   -0.0132   -5.0991 P.3       1 ATP         1.9141
      6 O1B         5.0040    0.6180   -3.9095 O.2       1 ATP        -0.8754
      7 O2B         3.9480    1.0148   -6.2827 O.3       1 ATP        -0.8083
      8 O3B         5.2132   -1.1510   -5.8457 O.3       1 ATP        -0.8025
      9 PA          2.6341   -2.0604   -3.8375 P.3       1 ATP         1.8015
     10 O1A         3.3737   -3.3251   -4.1654 O.2       1 ATP        -0.8201
     11 O2A         1.0234   -2.1932   -3.9140 O.3       1 ATP        -0.8103
     12 O3A         2.9659   -0.7996   -4.7916 O.3       1 ATP        -0.8038
     13 O5'         2.9195   -1.4814   -2.3527 O.3       1 ATP        -0.5730
     14 C5'         2.2816   -0.2918   -1.9206 C.3       1 ATP         0.1929
     15 C4'         2.7248    0.0226   -0.4980 C.3       1 ATP         0.1044
     16 O4'         2.4697    1.4219   -0.2462 O.3       1 ATP        -0.4079
     17 C3'         1.9404   -0.7419    0.5596 C.3       1 ATP         0.1439
     18 O3'         2.7418   -0.8086    1.7389 O.3       1 ATP        -0.5593
     19 C2'         0.7477    0.1630    0.7858 C.3       1 ATP         0.0644
     20 O2'         0.1373   -0.0577    2.0407 O.3       1 ATP        -0.5595
     21 C1'         1.3733    1.5427    0.6747 C.3       1 ATP         0.3792
     22 N9          0.4520    2.5240    0.1767 N.pl3     1 ATP        -0.5557
     23 C8          0.0623    3.6542    0.7479 C.ar      1 ATP         0.2849
     24 N7         -0.8074    4.3516    0.0193 N.pl3     1 ATP        -0.5117
     25 C5         -0.9855    3.6123   -1.0979 C.ar      1 ATP        -0.2787
     26 C6         -1.7474    3.7860   -2.2156 C.ar      1 ATP         0.7736
     27 N6         -2.5511    4.9389   -2.3303 N.pl3     1 ATP        -0.9480
     28 N1         -1.7375    2.8675   -3.2064 N.ar      1 ATP        -0.7442
     29 C2         -0.9330    1.7853   -3.0121 C.ar      1 ATP         0.7202
     30 N3         -0.1423    1.5179   -1.9478 N.ar      1 ATP        -0.6957
     31 C4         -0.2044    2.4690   -1.0113 C.ar      1 ATP         0.6231
     32 HOG3        6.1709    0.9347   -7.4397 H         1 ATP         0.4452
     33 HOB2        4.6576    1.5363   -6.7147 H         1 ATP         0.4969
     34 HOA2        0.5729   -2.8411   -3.3313 H         1 ATP         0.4779
     35 H5'1        2.5577    0.5243   -2.5962 H         1 ATP         0.0280
     36 H5'2        1.1971   -0.4362   -1.9603 H         1 ATP         0.0280
     37 H4'         3.8049   -0.1388   -0.4009 H         1 ATP         0.2049
     38 H3'         1.6783   -1.7629    0.2715 H         1 ATP         0.1077
     39 HO3'        2.2232   -1.2979    2.3953 H         1 ATP         0.4255
     40 H2'        -0.0011    0.0027    0.0003 H         1 ATP         0.0584
     41 HO2'       -0.6141    0.5574    2.1082 H         1 ATP         0.4149
     42 H1'         1.7826    1.9024    1.6451 H         1 ATP         0.1459
     43 H8          0.4111    3.9873    1.7100 H         1 ATP         0.2739
     44 HN61       -3.0729    5.0887   -3.1702 H         1 ATP         0.4605
     45 HN62       -2.5136    5.6334   -1.6116 H         1 ATP         0.4605
     46 H2         -0.9279    1.0504   -3.8088 H         1 ATP         0.0904
     47 H47        -1.2303    5.2364    0.2633 H         1 ATP         0.5017
@<TRIPOS>BOND
     1    1    2 2
     2    1    3 1
     3    1    4 1
     4    1    8 1
     5    4   32 1
     6    5    6 2
     7    5    7 1
     8    5    8 1
     9    5   12 1
    10    7   33 1
    11    9   10 2
    12    9   11 1
    13    9   12 1
    14    9   13 1
    15   11   34 1
    16   13   14 1
    17   14   15 1
    18   14   35 1
    19   14   36 1
    20   15   16 1
    21   15   17 1
    22   15   37 1
    23   16   21 1
    24   17   18 1
    25   17   19 1
    26   17   38 1
    27   18   39 1
    28   19   20 1
    29   19   21 1
    30   19   40 1
    31   20   41 1
    32   21   22 1
    33   21   42 1
    34   22   23 ar
    35   22   31 ar
    36   23   24 ar
    37   23   43 1
    38   24   25 ar
    39   24   47 1
    40   25   26 ar
    41   25   31 ar
    42   26   27 1
    43   26   28 ar
    44   27   44 1
    45   27   45 1
    46   28   29 ar
    47   29   30 ar
    48   29   46 1
    49   30   31 ar
@<TRIPOS>SUBSTRUCTURE
     1 ATP         1 GROUP 0 A     ****
@<TRIPOS>MOLECULE
[[[5-(6-amino-7,8-dihydropurin-8-ylium-9-yl)-3,4-dihydroxy-tetrahydrofuran-2-yl]methoxy-hydroxy-phosphoryl]oxy-hydroxy-phosphoryl] hydrogen phosphate
   47    49     1     0     0
SMALL
USER_CHARGES

@<TRIPOS>ATOM
      1 PG         -0.8800    4.8999   -4.2899 P.3       1 ATP         1.5449
      2 O1G        -0.6704    5.4037   -5.7007 O.co2     1 ATP        -0.8177
      3 O2G        -0.7964    5.8439   -3.1110 O.co2     1 ATP        -0.8177
      4 O3G        -2.3117    4.1175   -4.2291 O.3       1 ATP        -0.7779
      5 PB          0.8366    2.6071   -5.0480 P.3       1 ATP         1.9141
      6 O1B        -0.0959    1.7983   -5.9007 O.2       1 ATP        -0.8754
      7 O2B         1.8797    3.5306   -5.8682 O.3       1 ATP        -0.8083
      8 O3B         0.1188    3.6383   -4.0324 O.3       1 ATP        -0.8025
      9 PA          2.8849    0.6141   -4.3169 P.3       1 ATP         1.8015
     10 O1A         4.0462    1.0377   -5.1688 O.2       1 ATP        -0.8201
     11 O2A         2.0328   -0.6216   -4.9208 O.3       1 ATP        -0.8103
     12 O3A         1.7748    1.7562   -4.0460 O.3       1 ATP        -0.8038
     13 O5'         3.2874    0.1332   -2.8242 O.3       1 ATP        -0.5730
     14 C5'         2.2816   -0.2918   -1.9206 C.3       1 ATP         0.1929
     15 C4'         2.7248    0.0226   -0.4980 C.3       1 ATP         0.1044
     16 O4'         2.4697    1.4219   -0.2462 O.3       1 ATP        -0.4079
     17 C3'         1.9404   -0.7419    0.5596 C.3       1 ATP         0.1439
     18 O3'         2.7418   -0.8086    1.7389 O.3       1 ATP        -0.5593
     19 C2'         0.7477    0.1630    0.7858 C.3       1 ATP         0.0644
     20 O2'         0.1373   -0.0577    2.0407 O.3       1 ATP        -0.5595
     21 C1'         1.3733    1.5427    0.6747 C.3       1 ATP         0.3792
     22 N9          0.4520    2.5240    0.1767 N.pl3     1 ATP        -0.5557
     23 C8          0.5305    3.2394   -0.9358 C.ar      1 ATP         0.2849
     24 N7         -0.4966    4.0680   -1.1145 N.pl3     1 ATP        -0.5117
     25 C5         -1.2879    3.8664   -0.0375 C.ar      1 ATP        -0.2787
     26 C6         -2.4754    4.4084    0.3577 C.ar      1 ATP         0.7736
     27 N6         -3.0892    5.3882   -0.4495 N.pl3     1 ATP        -0.9480
     28 N1         -3.0632    4.0158    1.5092 N.ar      1 ATP        -0.7442
     29 C2         -2.4008    3.0654    2.2262 C.ar      1 ATP         0.7202
     30 N3         -1.2259    2.4663    1.9260 N.ar      1 ATP        -0.6957
     31 C4         -0.7062    2.9047    0.7757 C.ar      1 ATP         0.6231
     32 HOG3       -2.5954    3.7285   -3.3745 H         1 ATP         0.4452
     33 HOB2        2.5172    4.0844   -5.3694 H         1 ATP         0.4969
     34 HOA2        1.6061   -0.5193   -5.7981 H         1 ATP         0.4779
     35 H5'1        1.3494    0.2323   -2.1552 H         1 ATP         0.0280
     36 H5'2        2.1260   -1.3686   -2.0436 H         1 ATP         0.0280
     37 H4'         3.8049   -0.1388   -0.4009 H         1 ATP         0.2049
     38 H3'         1.6783   -1.7629    0.2715 H         1 ATP         0.1077
     39 HO3'        2.2232   -1.2979    2.3953 H         1 ATP         0.4255
     40 H2'        -0.0011    0.0027    0.0003 H         1 ATP         0.0584
     41 HO2'       -0.1563   -0.9855    2.0596 H         1 ATP         0.4149
     42 H1'         1.7826    1.9024    1.6451 H         1 ATP         0.1459
     43 H8          1.3437    3.1645   -1.6367 H         1 ATP         0.2739
     44 HN61       -3.9824    5.7507   -0.1831 H         1 ATP         0.4605
     45 HN62       -2.6676    5.6358   -1.3220 H         1 ATP         0.4605
     46 H2         -2.8752    2.7532    3.1495 H         1 ATP         0.0904
     47 H47        -0.6372    4.7004   -1.8900 H         1 ATP         0.5017
@<TRIPOS>BOND
     1    1    2 2
     2    1    3 1
     3    1    4 1
     4    1    8 1
     5    4   32 1
     6    5    6 2
     7    5    7 1
     8    5    8 1
     9    5   12 1
    10    7   33 1
    11    9   10 2
    12    9   11 1
    13    9   12 1
    14    9   13 1
    15   11   34 1
    16   13   14 1
    17   14   15 1
    18   14   35 1
    19   14   36 1
    20   15   16 1
    21   15   17 1
    22   15   37 1
    23   16   21 1
    24   17   18 1
    25   17   19 1
    26   17   38 1
    27   18   39 1
    28   19   20 1
    29   19   21 1
    30   19   40 1
    31   20   41 1
    32   21   22 1
    33   21   42 1
    34   22   23 ar
    35   22   31 ar
    36   23   24 ar
    37   23   43 1
    38   24   25 ar
    39   24   47 1
    40   25   26 ar
    41   25   31 ar
    42   26   27 1
    43   26   28 ar
    44   27   44 1
    45   27   45 1
    46   28   29 ar
    47   29   30 ar
    48   29   46 1
    49   30   31 ar
@<TRIPOS>SUBSTRUCTURE
     1 ATP         1 GROUP 0 A     ****
@<TRIPOS>MOLECULE
[[[5-(6-amino-7,8-dihydropurin-8-ylium-9-yl)-3,4-dihydroxy-tetrahydrofuran-2-yl]methoxy-hydroxy-phosphoryl]oxy-hydroxy-phosphoryl] hydrogen phosphate
   47    49     1     0     0
SMALL
USER_CHARGES

@<TRIPOS>ATOM
      1 PG          1.6019    1.1411   -6.6428 P.3       1 ATP         1.5449
      2 O1G         0.1765    1.6397   -6.5552 O.co2     1 ATP        -0.8177
      3 O2G         2.5693    1.7358   -7.6419 O.co2     1 ATP        -0.8177
      4 O3G         2.2709    1.2279   -5.1560 O.3       1 ATP        -0.7779
      5 PB          0.8617   -1.6483   -5.9723 P.3       1 ATP         1.9141
      6 O1B        -0.6335   -1.5548   -5.8917 O.2       1 ATP        -0.8754
      7 O2B         1.4230   -3.0123   -6.6342 O.3       1 ATP        -0.8083
      8 O3B         1.5782   -0.4781   -6.8251 O.3       1 ATP        -0.8025
      9 PA          1.5750   -2.4636   -3.2285 P.3       1 ATP         1.8015
     10 O1A         1.9420   -3.9067   -3.4205 O.2       1 ATP        -0.8201
     11 O2A         0.0757   -2.2276   -2.6680 O.3       1 ATP        -0.8103
     12 O3A         1.6402   -1.5518   -4.5606 O.3       1 ATP        -0.8038
     13 O5'         2.5233   -1.6623   -2.1893 O.3       1 ATP        -0.5730
     14 C5'         2.2816   -0.2918   -1.9206 C.3       1 ATP         0.1929
     15 C4'         2.7248    0.0226   -0.4980 C.3       1 ATP         0.1044
     16 O4'         2.4697    1.4219   -0.2462 O.3       1 ATP        -0.4079
     17 C3'         1.9404   -0.7419    0.5596 C.3       1 ATP         0.1439
     18 O3'         2.7418   -0.8086    1.7389 O.3       1 ATP        -0.5593
     19 C2'         0.7477    0.1630    0.7858 C.3       1 ATP         0.0644
     20 O2'         0.1373   -0.0577    2.0407 O.3       1 ATP        -0.5595
     21 C1'         1.3733    1.5427    0.6747 C.3       1 ATP         0.3792
     22 N9          0.4520    2.5240    0.1767 N.pl3     1 ATP        -0.5557
     23 C8          0.0623    3.6542    0.7479 C.ar      1 ATP         0.2849
     24 N7         -0.8074    4.3516    0.0193 N.pl3     1 ATP        -0.5117
     25 C5         -0.9855    3.6123   -1.0979 C.ar      1 ATP        -0.2787
     26 C6         -1.7474    3.7860   -2.2156 C.ar      1 ATP         0.7736
     27 N6         -2.5511    4.9389   -2.3303 N.pl3     1 ATP        -0.9480
     28 N1         -1.7375    2.8675   -3.2064 N.ar      1 ATP        -0.7442
     29 C2         -0.9330    1.7853   -3.0121 C.ar      1 ATP         0.7202
     30 N3         -0.1423    1.5179   -1.9478 N.ar      1 ATP        -0.6957
     31 C4         -0.2044    2.4690   -1.0113 C.ar      1 ATP         0.6231
     32 HOG3        3.2013    0.9378   -5.0449 H         1 ATP         0.4452
     33 HOB2        1.2017   -3.8701   -6.2134 H         1 ATP         0.4969
     34 HOA2       -0.1714   -2.6105   -1.7994 H         1 ATP         0.4779
     35 H5'1        2.8428    0.3149   -2.6387 H         1 ATP         0.0280
     36 H5'2        1.2124   -0.0897   -2.0417 H         1 ATP         0.0280
     37 H4'         3.8049   -0.1388   -0.4009 H         1 ATP         0.2049
     38 H3'         1.6783   -1.7629    0.2715 H         1 ATP         0.1077
     39 HO3'        2.2232   -1.2979    2.3953 H         1 ATP         0.4255
     40 H2'        -0.0011    0.0027    0.0003 H         1 ATP         0.0584
     41 HO2'       -0.6141    0.5574    2.1082 H         1 ATP         0.4149
     42 H1'         1.7826    1.9024    1.6451 H         1 ATP         0.1459
     43 H8          0.4111    3.9873    1.7100 H         1 ATP         0.2739
     44 HN61       -2.5859    5.5874   -1.5698 H         1 ATP         0.4605
     45 HN62       -3.1449    5.0423   -3.1284 H         1 ATP         0.4605
     46 H2         -0.9279    1.0504   -3.8088 H         1 ATP         0.0904
     47 H47        -1.2303    5.2364    0.2633 H         1 ATP         0.5017
@<TRIPOS>BOND
     1    1    2 2
     2    1    3 1
     3    1    4 1
     4    1    8 1
     5    4   32 1
     6    5    6 2
     7    5    7 1
     8    5    8 1
     9    5   12 1
    10    7   33 1
    11    9   10 2
    12    9   11 1
    13    9   12 1
    14    9   13 1
    15   11   34 1
    16   13   14 1
    17   14   15 1
    18   14   35 1
    19   14   36 1
    20   15   16 1
    21   15   17 1
    22   15   37 1
    23   16   21 1
    24   17   18 1
    25   17   19 1
    26   17   38 1
    27   18   39 1
    28   19   20 1
    29   19   21 1
    30   19   40 1
    31   20   41 1
    32   21   22 1
    33   21   42 1
    34   22   23 ar
    35   22   31 ar
    36   23   24 ar
    37   23   43 1
    38   24   25 ar
    39   24   47 1
    40   25   26 ar
    41   25   31 ar
    42   26   27 1
    43   26   28 ar
    44   27   44 1
    45   27   45 1
    46   28   29 ar
    47   29   30 ar
    48   29   46 1
    49   30   31 ar
@<TRIPOS>SUBSTRUCTURE
     1 ATP         1 GROUP 0 A     ****
@<TRIPOS>MOLECULE
[[[5-(6-amino-7,8-dihydropurin-8-ylium-9-yl)-3,4-dihydroxy-tetrahydrofuran-2-yl]methoxy-hydroxy-phosphoryl]oxy-hydroxy-phosphoryl] hydrogen phosphate
   47    49     1     0     0
SMALL
USER_CHARGES

@<TRIPOS>ATOM
      1 PG          5.9202   -4.2738   -5.1756 P.3       1 ATP         1.5449
      2 O1G         4.6651   -3.8439   -5.9023 O.co2     1 ATP        -0.8177
      3 O2G         6.2749   -5.7384   -5.0446 O.co2     1 ATP        -0.8177
      4 O3G         7.1914   -3.4875   -5.8325 O.3       1 ATP        -0.7779
      5 PB          5.7658   -2.0570   -3.2161 P.3       1 ATP         1.9141
      6 O1B         5.8302   -1.8424   -1.7326 O.2       1 ATP        -0.8754
      7 O2B         6.8877   -1.2630   -4.0672 O.3       1 ATP        -0.8083
      8 O3B         5.9264   -3.5912   -3.6959 O.3       1 ATP        -0.8025
      9 PA          2.8569   -2.1455   -3.6982 P.3       1 ATP         1.8015
     10 O1A         2.6294   -3.6082   -3.9481 O.2       1 ATP        -0.8201
     11 O2A         1.9764   -1.1656   -4.6375 O.3       1 ATP        -0.8103
     12 O3A         4.3739   -1.6354   -3.9184 O.3       1 ATP        -0.8038
     13 O5'         2.5233   -1.6623   -2.1893 O.3       1 ATP        -0.5730
     14 C5'         2.2816   -0.2918   -1.9206 C.3       1 ATP         0.1929
     15 C4'         2.7248    0.0226   -0.4980 C.3       1 ATP         0.1044
     16 O4'         2.4697    1.4219   -0.2462 O.3       1 ATP        -0.4079
     17 C3'         1.9404   -0.7419    0.5596 C.3       1 ATP         0.1439
     18 O3'         2.7418   -0.8086    1.7389 O.3       1 ATP        -0.5593
     19 C2'         0.7477    0.1630    0.7858 C.3       1 ATP         0.0644
     20 O2'         0.1373   -0.0577    2.0407 O.3       1 ATP        -0.5595
     21 C1'         1.3733    1.5427    0.6747 C.3       1 ATP         0.3792
     22 N9          0.4520    2.5240    0.1767 N.pl3     1 ATP        -0.5557
     23 C8         -0.3477    3.3274    0.8626 C.ar      1 ATP         0.2849
     24 N7         -1.0836    4.1323    0.0983 N.pl3     1 ATP        -0.5117
     25 C5         -0.7273    3.8194   -1.1674 C.ar      1 ATP        -0.2787
     26 C6         -1.1208    4.2877   -2.3863 C.ar      1 ATP         0.7736
     27 N6         -2.0932    5.3066   -2.4528 N.pl3     1 ATP        -0.9480
     28 N1         -0.5892    3.7853   -3.5223 N.ar      1 ATP        -0.7442
     29 C2          0.3427    2.8040   -3.3648 C.ar      1 ATP         0.7202
     30 N3          0.8012    2.2709   -2.2093 N.ar      1 ATP        -0.6957
     31 C4          0.2307    2.8167   -1.1312 C.ar      1 ATP         0.6231
     32 HOG3        8.0858   -3.6593   -5.4681 H         1 ATP         0.4452
     33 HOB2        7.8351   -1.4454   -3.8901 H         1 ATP         0.4969
     34 HOA2        2.0854   -1.2180   -5.6109 H         1 ATP         0.4779
     35 H5'1        2.8428    0.3149   -2.6387 H         1 ATP         0.0280
     36 H5'2        1.2124   -0.0897   -2.0417 H         1 ATP         0.0280
     37 H4'         3.8049   -0.1388   -0.4009 H         1 ATP         0.2049
     38 H3'         1.6783   -1.7629    0.2715 H         1 ATP         0.1077
     39 HO3'        2.2232   -1.2979    2.3953 H         1 ATP         0.4255
     40 H2'        -0.0011    0.0027    0.0003 H         1 ATP         0.0584
     41 HO2'       -0.6141    0.5574    2.1082 H         1 ATP         0.4149
     42 H1'         1.7826    1.9024    1.6451 H         1 ATP         0.1459
     43 H8         -0.4040    3.3373    1.9373 H         1 ATP         0.2739
     44 HN61       -2.3467    5.6821   -3.3445 H         1 ATP         0.4605
     45 HN62       -2.4443    5.7023   -1.6040 H         1 ATP         0.4605
     46 H2          0.7668    2.4032   -4.2782 H         1 ATP         0.0904
     47 H47        -1.7549    4.8194    0.4122 H         1 ATP         0.5017
@<TRIPOS>BOND
     1    1    2 2
     2    1    3 1
     3    1    4 1
     4    1    8 1
     5    4   32 1
     6    5    6 2
     7    5    7 1
     8    5    8 1
     9    5   12 1
    10    7   33 1
    11    9   10 2
    12    9   11 1
    13    9   12 1
    14    9   13 1
    15   11   34 1
    16   13   14 1
    17   14   15 1
    18   14   35 1
    19   14   36 1
    20   15   16 1
    21   15   17 1
    22   15   37 1
    23   16   21 1
    24   17   18 1
    25   17   19 1
    26   17   38 1
    27   18   39 1
    28   19   20 1
    29   19   21 1
    30   19   40 1
    31   20   41 1
    32   21   22 1
    33   21   42 1
    34   22   23 ar
    35   22   31 ar
    36   23   24 ar
    37   23   43 1
    38   24   25 ar
    39   24   47 1
    40   25   26 ar
    41   25   31 ar
    42   26   27 1
    43   26   28 ar
    44   27   44 1
    45   27   45 1
    46   28   29 ar
    47   29   30 ar
    48   29   46 1
    49   30   31 ar
@<TRIPOS>SUBSTRUCTURE
     1 ATP         1 GROUP 0 A     ****
@<TRIPOS>MOLECULE
[[[5-(6-amino-7,8-dihydropurin-8-ylium-9-yl)-3,4-dihydroxy-tetrahydrofuran-2-yl]methoxy-hydroxy-phosphoryl]oxy-hydroxy-phosphoryl] hydrogen phosphate
   47    49     1     0     0
SMALL
USER_CHARGES

@<TRIPOS>ATOM
      1 PG          0.9700   -3.7367   -4.6236 P.3       1 ATP         1.5449
      2 O1G        -0.3423   -4.3747   -5.0223 O.co2     1 ATP        -0.8177
      3 O2G         1.0766   -2.9110   -3.3608 O.co2     1 ATP        -0.8177
      4 O3G         2.1170   -4.8980   -4.5840 O.3       1 ATP        -0.7779
      5 PB          1.4227   -1.2867   -6.2270 P.3       1 ATP         1.9141
      6 O1B         2.0838   -0.8705   -7.5079 O.2       1 ATP        -0.8754
      7 O2B        -0.1615   -0.9746   -6.1468 O.3       1 ATP        -0.8083
      8 O3B         1.5275   -2.8609   -5.8798 O.3       1 ATP        -0.8025
      9 PA          3.4957   -0.6445   -4.2289 P.3       1 ATP         1.8015
     10 O1A         4.5940   -0.0911   -5.0900 O.2       1 ATP        -0.8201
     11 O2A         3.6994   -2.1925   -3.8046 O.3       1 ATP        -0.8103
     12 O3A         2.0205   -0.6125   -4.8867 O.3       1 ATP        -0.8038
     13 O5'         3.2874    0.1332   -2.8242 O.3       1 ATP        -0.5730
     14 C5'         2.2816   -0.2918   -1.9206 C.3       1 ATP         0.1929
     15 C4'         2.7248    0.0226   -0.4980 C.3       1 ATP         0.1044
     16 O4'         2.4697    1.4219   -0.2462 O.3       1 ATP        -0.4079
     17 C3'         1.9404   -0.7419    0.5596 C.3       1 ATP         0.1439
     18 O3'         2.7418   -0.8086    1.7389 O.3       1 ATP        -0.5593
     19 C2'         0.7477    0.1630    0.7858 C.3       1 ATP         0.0644
     20 O2'         0.1373   -0.0577    2.0407 O.3       1 ATP        -0.5595
     21 C1'         1.3733    1.5427    0.6747 C.3       1 ATP         0.3792
     22 N9          0.4520    2.5240    0.1767 N.pl3     1 ATP        -0.5557
     23 C8          0.5305    3.2394   -0.9358 C.ar      1 ATP         0.2849
     24 N7         -0.4966    4.0680   -1.1145 N.pl3     1 ATP        -0.5117
     25 C5         -1.2879    3.8664   -0.0375 C.ar      1 ATP        -0.2787
     26 C6         -2.4754    4.4084    0.3577 C.ar      1 ATP         0.7736
     27 N6         -3.0892    5.3882   -0.4495 N.pl3     1 ATP        -0.9480
     28 N1         -3.0632    4.0158    1.5092 N.ar      1 ATP        -0.7442
     29 C2         -2.4008    3.0654    2.2262 C.ar      1 ATP         0.7202
     30 N3         -1.2259    2.4663    1.9260 N.ar      1 ATP        -0.6957
     31 C4         -0.7062    2.9047    0.7757 C.ar      1 ATP         0.6231
     32 HOG3        3.0321   -4.6424   -4.3400 H         1 ATP         0.4452
     33 HOB2       -0.7594   -1.3810   -6.8097 H         1 ATP         0.4969
     34 HOA2        4.4967   -2.4422   -3.2908 H         1 ATP         0.4779
     35 H5'1        1.3494    0.2323   -2.1552 H         1 ATP         0.0280
     36 H5'2        2.1260   -1.3686   -2.0436 H         1 ATP         0.0280
     37 H4'         3.8049   -0.1388   -0.4009 H         1 ATP         0.2049
     38 H3'         1.6783   -1.7629    0.2715 H         1 ATP         0.1077
     39 HO3'        2.2232   -1.2979    2.3953 H         1 ATP         0.4255
     40 H2'        -0.0011    0.0027    0.0003 H         1 ATP         0.0584
     41 HO2'       -0.1563   -0.9855    2.0596 H         1 ATP         0.4149
     42 H1'         1.7826    1.9024    1.6451 H         1 ATP         0.1459
     43 H8          1.3437    3.1645   -1.6367 H         1 ATP         0.2739
     44 HN61       -2.6210    5.7042   -1.2748 H         1 ATP         0.4605
     45 HN62       -3.9356    5.8187   -0.1356 H         1 ATP         0.4605
     46 H2         -2.8752    2.7532    3.1495 H         1 ATP         0.0904
     47 H47        -0.6372    4.7004   -1.8900 H         1 ATP         0.5017
@<TRIPOS>BOND
     1    1    2 2
     2    1    3 1
     3    1    4 1
     4    1    8 1
     5    4   32 1
     6    5    6 2
     7    5    7 1
     8    5    8 1
     9    5   12 1
    10    7   33 1
    11    9   10 2
    12    9   11 1
    13    9   12 1
    14    9   13 1
    15   11   34 1
    16   13   14 1
    17   14   15 1
    18   14   35 1
    19   14   36 1
    20   15   16 1
    21   15   17 1
    22   15   37 1
    23   16   21 1
    24   17   18 1
    25   17   19 1
    26   17   38 1
    27   18   39 1
    28   19   20 1
    29   19   21 1
    30   19   40 1
    31   20   41 1
    32   21   22 1
    33   21   42 1
    34   22   23 ar
    35   22   31 ar
    36   23   24 ar
    37   23   43 1
    38   24   25 ar
    39   24   47 1
    40   25   26 ar
    41   25   31 ar
    42   26   27 1
    43   26   28 ar
    44   27   44 1
    45   27   45 1
    46   28   29 ar
    47   29   30 ar
    48   29   46 1
    49   30   31 ar
@<TRIPOS>SUBSTRUCTURE
     1 ATP         1 GROUP 0 A     ****
@<TRIPOS>MOLECULE
[[[5-(6-amino-7,8-dihydropurin-8-ylium-9-yl)-3,4-dihydroxy-tetrahydrofuran-2-yl]methoxy-hydroxy-phosphoryl]oxy-hydroxy-phosphoryl] hydrogen phosphate
   47    49     1     0     0
SMALL
USER_CHARGES

@<TRIPOS>ATOM
      1 PG          4.9004   -2.0794   -7.1481 P.3       1 ATP         1.5449
      2 O1G         6.0121   -3.0941   -7.2979 O.co2     1 ATP        -0.8177
      3 O2G         4.5047   -1.1889   -8.3050 O.co2     1 ATP        -0.8177
      4 O3G         3.5675   -2.8509   -6.6061 O.3       1 ATP        -0.7779
      5 PB          4.3426   -0.0132   -5.0991 P.3       1 ATP         1.9141
      6 O1B         5.0040    0.6180   -3.9095 O.2       1 ATP        -0.8754
      7 O2B         3.9480    1.0148   -6.2827 O.3       1 ATP        -0.8083
      8 O3B         5.2132   -1.1510   -5.8457 O.3       1 ATP        -0.8025
      9 PA          2.6341   -2.0604   -3.8375 P.3       1 ATP         1.8015
     10 O1A         3.3737   -3.3251   -4.1654 O.2       1 ATP        -0.8201
     11 O2A         1.0234   -2.1932   -3.9140 O.3       1 ATP        -0.8103
     12 O3A         2.9659   -0.7996   -4.7916 O.3       1 ATP        -0.8038
     13 O5'         2.9195   -1.4814   -2.3527 O.3       1 ATP        -0.5730
     14 C5'         2.2816   -0.2918   -1.9206 C.3       1 ATP         0.1929
     15 C4'         2.7248    0.0226   -0.4980 C.3       1 ATP         0.1044
     16 O4'         2.4697    1.4219   -0.2462 O.3       1 ATP        -0.4079
     17 C3'         1.9404   -0.7419    0.5596 C.3       1 ATP         0.1439
     18 O3'         2.7418   -0.8086    1.7389 O.3       1 ATP        -0.5593
     19 C2'         0.7477    0.1630    0.7858 C.3       1 ATP         0.0644
     20 O2'         0.1373   -0.0577    2.0407 O.3       1 ATP        -0.5595
     21 C1'         1.3733    1.5427    0.6747 C.3       1 ATP         0.3792
     22 N9          0.4520    2.5240    0.1767 N.pl3     1 ATP        -0.5557
     23 C8         -0.2172    2.5216   -0.9668 C.ar      1 ATP         0.2849
     24 N7         -1.0011    3.5855   -1.1321 N.pl3     1 ATP        -0.5117
     25 C5         -0.8184    4.3200   -0.0123 C.ar      1 ATP        -0.2787
     26 C6         -1.3349    5.5079    0.4144 C.ar      1 ATP         0.7736
     27 N6         -2.2567    6.1930   -0.4036 N.pl3     1 ATP        -0.9480
     28 N1         -0.9716    6.0291    1.6069 N.ar      1 ATP        -0.7442
     29 C2         -0.0765    5.3009    2.3312 C.ar      1 ATP         0.7202
     30 N3          0.4933    4.1191    2.0023 N.ar      1 ATP        -0.6957
     31 C4          0.0865    3.6675    0.8123 C.ar      1 ATP         0.6231
     32 HOG3        2.7525   -2.3260   -6.4563 H         1 ATP         0.4452
     33 HOB2        4.6576    1.5363   -6.7147 H         1 ATP         0.4969
     34 HOA2        0.6086   -2.4484   -4.7654 H         1 ATP         0.4779
     35 H5'1        2.5577    0.5243   -2.5962 H         1 ATP         0.0280
     36 H5'2        1.1971   -0.4362   -1.9603 H         1 ATP         0.0280
     37 H4'         3.8049   -0.1388   -0.4009 H         1 ATP         0.2049
     38 H3'         1.6783   -1.7629    0.2715 H         1 ATP         0.1077
     39 HO3'        2.2232   -1.2979    2.3953 H         1 ATP         0.4255
     40 H2'        -0.0011    0.0027    0.0003 H         1 ATP         0.0584
     41 HO2'       -0.6141    0.5574    2.1082 H         1 ATP         0.4149
     42 H1'         1.7826    1.9024    1.6451 H         1 ATP         0.1459
     43 H8         -0.1423    1.7373   -1.6999 H         1 ATP         0.2739
     44 HN61       -2.4811    5.8206   -1.3042 H         1 ATP         0.4605
     45 HN62       -2.5986    7.0863   -0.1113 H         1 ATP         0.4605
     46 H2          0.2128    5.7222    3.2871 H         1 ATP         0.0904
     47 H47        -1.5947    3.7835   -1.9255 H         1 ATP         0.5017
@<TRIPOS>BOND
     1    1    2 2
     2    1    3 1
     3    1    4 1
     4    1    8 1
     5    4   32 1
     6    5    6 2
     7    5    7 1
     8    5    8 1
     9    5   12 1
    10    7   33 1
    11    9   10 2
    12    9   11 1
    13    9   12 1
    14    9   13 1
    15   11   34 1
    16   13   14 1
    17   14   15 1
    18   14   35 1
    19   14   36 1
    20   15   16 1
    21   15   17 1
    22   15   37 1
    23   16   21 1
    24   17   18 1
    25   17   19 1
    26   17   38 1
    27   18   39 1
    28   19   20 1
    29   19   21 1
    30   19   40 1
    31   20   41 1
    32   21   22 1
    33   21   42 1
    34   22   23 ar
    35   22   31 ar
    36   23   24 ar
    37   23   43 1
    38   24   25 ar
    39   24   47 1
    40   25   26 ar
    41   25   31 ar
    42   26   27 1
    43   26   28 ar
    44   27   44 1
    45   27   45 1
    46   28   29 ar
    47   29   30 ar
    48   29   46 1
    49   30   31 ar
@<TRIPOS>SUBSTRUCTURE
     1 ATP         1 GROUP 0 A     ****
@<TRIPOS>MOLECULE
[[[5-(6-amino-7,8-dihydropurin-8-ylium-9-yl)-3,4-dihydroxy-tetrahydrofuran-2-yl]methoxy-hydroxy-phosphoryl]oxy-hydroxy-phosphoryl] hydrogen phosphate
   47    49     1     0     0
SMALL
USER_CHARGES

@<TRIPOS>ATOM
      1 PG          0.6837   -7.9309    6.5674 P.3       1 ATP         1.5449
      2 O1G         0.3735   -6.6572    7.3220 O.co2     1 ATP        -0.8177
      3 O2G         1.6948   -8.9204    7.1026 O.co2     1 ATP        -0.8177
      4 O3G        -0.7184   -8.7195    6.2884 O.3       1 ATP        -0.7779
      5 PB          0.1700   -7.2438    3.7314 P.3       1 ATP         1.9141
      6 O1B         0.9349   -6.9217    2.4817 O.2       1 ATP        -0.8754
      7 O2B        -0.7979   -8.5342    3.6227 O.3       1 ATP        -0.8083
      8 O3B         1.0773   -7.5462    5.0334 O.3       1 ATP        -0.8025
      9 PA         -0.5043   -4.5581    4.7483 P.3       1 ATP         1.8015
     10 O1A         0.4315   -4.4253    5.9147 O.2       1 ATP        -0.8201
     11 O2A        -1.9751   -3.9332    5.0013 O.3       1 ATP        -0.8103
     12 O3A        -0.8022   -6.0726    4.2713 O.3       1 ATP        -0.8038
     13 O5'         0.0090   -3.8407    3.3907 O.3       1 ATP        -0.5730
     14 C5'        -0.7840   -3.8935    2.2172 C.3       1 ATP         0.1929
     15 C4'        -0.0724   -3.1466    1.1027 C.3       1 ATP         0.1044
     16 O4'        -0.8674   -3.1929   -0.0945 O.3       1 ATP        -0.4079
     17 C3'         0.1338   -1.6715    1.4027 C.3       1 ATP         0.1439
     18 O3'         1.2893   -1.4445    2.1808 O.3       1 ATP        -0.5593
     19 C2'         0.2158   -1.0724    0.0128 C.3       1 ATP         0.0644
     20 O2'         1.5141   -1.2448   -0.5513 O.3       1 ATP        -0.5595
     21 C1'        -0.7897   -1.9176   -0.7583 C.3       1 ATP         0.3792
     22 N9         -2.1040   -1.3333   -0.7704 N.pl3     1 ATP        -0.5557
     23 C8         -3.0822   -1.4850    0.1102 C.ar      1 ATP         0.2849
     24 N7         -4.1844   -0.7999   -0.1888 N.pl3     1 ATP        -0.5117
     25 C5         -3.8875   -0.1651   -1.3445 C.ar      1 ATP        -0.2787
     26 C6         -4.5941    0.6799   -2.1486 C.ar      1 ATP         0.7736
     27 N6         -5.9138    1.0274   -1.7939 N.pl3     1 ATP        -0.9480
     28 N1         -4.0421    1.1824   -3.2748 N.ar      1 ATP        -0.7442
     29 C2         -2.7637    0.7937   -3.5405 C.ar      1 ATP         0.7202
     30 N3         -1.9788   -0.0343   -2.8140 N.ar      1 ATP        -0.6957
     31 C4         -2.5915   -0.4902   -1.7174 C.ar      1 ATP         0.6231
     32 HOG3       -0.6864   -9.5720    5.8041 H         1 ATP         0.4452
     33 HOB2       -0.4033   -9.4070    3.4115 H         1 ATP         0.4969
     34 HOA2       -2.0550   -2.9780    5.2096 H         1 ATP         0.4779
     35 H5'1       -0.9362   -4.9413    1.9386 H         1 ATP         0.0280
     36 H5'2       -1.7562   -3.4348    2.4249 H         1 ATP         0.0280
     37 H4'         0.8886   -3.6448    0.8780 H         1 ATP         0.2049
     38 H3'        -0.7373   -1.2358    1.9870 H         1 ATP         0.1077
     39 HO3'        1.1626   -1.9325    3.0084 H         1 ATP         0.4255
     40 H2'        -0.0384   -0.0310    0.0096 H         1 ATP         0.0584
     41 HO2'        2.1463   -0.7958    0.0370 H         1 ATP         0.4149
     42 H1'        -0.4769   -2.1002   -1.8093 H         1 ATP         0.1459
     43 H8         -3.0031   -2.1011    0.9891 H         1 ATP         0.2739
     44 HN61       -6.3271    0.6117   -0.9836 H         1 ATP         0.4605
     45 HN62       -6.4471    1.6092   -2.4083 H         1 ATP         0.4605
     46 H2         -2.3243    1.1986   -4.4449 H         1 ATP         0.0904
     47 H47        -5.0436   -0.7722    0.3425 H         1 ATP         0.5017
@<TRIPOS>BOND
     1    1    2 2
     2    1    3 1
     3    1    4 1
     4    1    8 1
     5    4   32 1
     6    5    6 2
     7    5    7 1
     8    5    8 1
     9    5   12 1
    10    7   33 1
    11    9   10 2
    12    9   11 1
    13    9   12 1
    14    9   13 1
    15   11   34 1
    16   13   14 1
    17   14   15 1
    18   14   35 1
    19   14   36 1
    20   15   16 1
    21   15   17 1
    22   15   37 1
    23   16   21 1
    24   17   18 1
    25   17   19 1
    26   17   38 1
    27   18   39 1
    28   19   20 1
    29   19   21 1
    30   19   40 1
    31   20   41 1
    32   21   22 1
    33   21   42 1
    34   22   23 ar
    35   22   31 ar
    36   23   24 ar
    37   23   43 1
    38   24   25 ar
    39   24   47 1
    40   25   26 ar
    41   25   31 ar
    42   26   27 1
    43   26   28 ar
    44   27   44 1
    45   27   45 1
    46   28   29 ar
    47   29   30 ar
    48   29   46 1
    49   30   31 ar
@<TRIPOS>SUBSTRUCTURE
     1 ATP         1 GROUP 0 A     ****
@<TRIPOS>MOLECULE
[[[5-(6-amino-7,8-dihydropurin-8-ylium-9-yl)-3,4-dihydroxy-tetrahydrofuran-2-yl]methoxy-hydroxy-phosphoryl]oxy-hydroxy-phosphoryl] hydrogen phosphate
   47    49     1     0     0
SMALL
USER_CHARGES

@<TRIPOS>ATOM
      1 PG         -0.7616   -0.6784   -5.3797 P.3       1 ATP         1.5449
      2 O1G        -0.0972   -0.9356   -4.0454 O.co2     1 ATP        -0.8177
      3 O2G        -1.4391   -1.7999   -6.1355 O.co2     1 ATP        -0.8177
      4 O3G        -1.8279    0.5445   -5.1977 O.3       1 ATP        -0.7779
      5 PB          1.2171    1.3780   -6.1762 P.3       1 ATP         1.9141
      6 O1B         2.0923    1.7232   -7.3449 O.2       1 ATP        -0.8754
      7 O2B         0.1533    2.5226   -5.7618 O.3       1 ATP        -0.8083
      8 O3B         0.3108    0.0539   -6.3643 O.3       1 ATP        -0.8025
      9 PA          3.0863   -0.0757   -4.4171 P.3       1 ATP         1.8015
     10 O1A         4.3570   -0.0352   -5.2156 O.2       1 ATP        -0.8201
     11 O2A         2.2680   -1.4661   -4.5396 O.3       1 ATP        -0.8103
     12 O3A         1.9950    1.0527   -4.7988 O.3       1 ATP        -0.8038
     13 O5'         3.2874    0.1332   -2.8242 O.3       1 ATP        -0.5730
     14 C5'         2.2816   -0.2918   -1.9206 C.3       1 ATP         0.1929
     15 C4'         2.7248    0.0226   -0.4980 C.3       1 ATP         0.1044
     16 O4'         2.4697    1.4219   -0.2462 O.3       1 ATP        -0.4079
     17 C3'         1.9404   -0.7419    0.5596 C.3       1 ATP         0.1439
     18 O3'         2.7418   -0.8086    1.7389 O.3       1 ATP        -0.5593
     19 C2'         0.7477    0.1630    0.7858 C.3       1 ATP         0.0644
     20 O2'         0.1373   -0.0577    2.0407 O.3       1 ATP        -0.5595
     21 C1'         1.3733    1.5427    0.6747 C.3       1 ATP         0.3792
     22 N9          0.4520    2.5240    0.1767 N.pl3     1 ATP        -0.5557
     23 C8         -0.2172    2.5216   -0.9668 C.ar      1 ATP         0.2849
     24 N7         -1.0011    3.5855   -1.1321 N.pl3     1 ATP        -0.5117
     25 C5         -0.8184    4.3200   -0.0123 C.ar      1 ATP        -0.2787
     26 C6         -1.3349    5.5079    0.4144 C.ar      1 ATP         0.7736
     27 N6         -2.2567    6.1930   -0.4036 N.pl3     1 ATP        -0.9480
     28 N1         -0.9716    6.0291    1.6069 N.ar      1 ATP        -0.7442
     29 C2         -0.0765    5.3009    2.3312 C.ar      1 ATP         0.7202
     30 N3          0.4933    4.1191    2.0023 N.ar      1 ATP        -0.6957
     31 C4          0.0865    3.6675    0.8123 C.ar      1 ATP         0.6231
     32 HOG3       -2.3448    0.8338   -5.9796 H         1 ATP         0.4452
     33 HOB2       -0.5142    2.8110   -6.4202 H         1 ATP         0.4969
     34 HOA2        1.9544   -1.7554   -5.4228 H         1 ATP         0.4779
     35 H5'1        1.3494    0.2323   -2.1552 H         1 ATP         0.0280
     36 H5'2        2.1260   -1.3686   -2.0436 H         1 ATP         0.0280
     37 H4'         3.8049   -0.1388   -0.4009 H         1 ATP         0.2049
     38 H3'         1.6783   -1.7629    0.2715 H         1 ATP         0.1077
     39 HO3'        3.5554   -1.2733    1.4914 H         1 ATP         0.4255
     40 H2'        -0.0011    0.0027    0.0003 H         1 ATP         0.0584
     41 HO2'       -0.1563   -0.9855    2.0596 H         1 ATP         0.4149
     42 H1'         1.7826    1.9024    1.6451 H         1 ATP         0.1459
     43 H8         -0.1423    1.7373   -1.6999 H         1 ATP         0.2739
     44 HN61       -2.4811    5.8206   -1.3042 H         1 ATP         0.4605
     45 HN62       -2.5986    7.0863   -0.1113 H         1 ATP         0.4605
     46 H2          0.2128    5.7222    3.2871 H         1 ATP         0.0904
     47 H47        -1.5947    3.7835   -1.9255 H         1 ATP         0.5017
@<TRIPOS>BOND
     1    1    2 2
     2    1    3 1
     3    1    4 1
     4    1    8 1
     5    4   32 1
     6    5    6 2
     7    5    7 1
     8    5    8 1
     9    5   12 1
    10    7   33 1
    11    9   10 2
    12    9   11 1
    13    9   12 1
    14    9   13 1
    15   11   34 1
    16   13   14 1
    17   14   15 1
    18   14   35 1
    19   14   36 1
    20   15   16 1
    21   15   17 1
    22   15   37 1
    23   16   21 1
    24   17   18 1
    25   17   19 1
    26   17   38 1
    27   18   39 1
    28   19   20 1
    29   19   21 1
    30   19   40 1
    31   20   41 1
    32   21   22 1
    33   21   42 1
    34   22   23 ar
    35   22   31 ar
    36   23   24 ar
    37   23   43 1
    38   24   25 ar
    39   24   47 1
    40   25   26 ar
    41   25   31 ar
    42   26   27 1
    43   26   28 ar
    44   27   44 1
    45   27   45 1
    46   28   29 ar
    47   29   30 ar
    48   29   46 1
    49   30   31 ar
@<TRIPOS>SUBSTRUCTURE
     1 ATP         1 GROUP 0 A     ****
@<TRIPOS>MOLECULE
[[[5-(6-amino-7,8-dihydropurin-8-ylium-9-yl)-3,4-dihydroxy-tetrahydrofuran-2-yl]methoxy-hydroxy-phosphoryl]oxy-hydroxy-phosphoryl] hydrogen phosphate
   47    49     1     0     0
SMALL
USER_CHARGES

@<TRIPOS>ATOM
      1 PG          3.7032    4.3675   -6.5551 P.3       1 ATP         1.5449
      2 O1G         2.5138    5.1575   -7.0542 O.co2     1 ATP        -0.8177
      3 O2G         4.8726    4.0706   -7.4674 O.co2     1 ATP        -0.8177
      4 O3G         4.2684    5.0858   -5.2022 O.3       1 ATP        -0.7779
      5 PB          2.0581    2.6662   -4.7725 P.3       1 ATP         1.9141
      6 O1B         2.3317    3.2788   -3.4306 O.2       1 ATP        -0.8754
      7 O2B         0.6661    3.1218   -5.4569 O.3       1 ATP        -0.8083
      8 O3B         3.1677    2.9718   -5.9062 O.3       1 ATP        -0.8025
      9 PA          3.0863   -0.0757   -4.4171 P.3       1 ATP         1.8015
     10 O1A         4.3570   -0.0352   -5.2156 O.2       1 ATP        -0.8201
     11 O2A         2.2680   -1.4661   -4.5396 O.3       1 ATP        -0.8103
     12 O3A         1.9950    1.0527   -4.7988 O.3       1 ATP        -0.8038
     13 O5'         3.2874    0.1332   -2.8242 O.3       1 ATP        -0.5730
     14 C5'         2.2816   -0.2918   -1.9206 C.3       1 ATP         0.1929
     15 C4'         2.7248    0.0226   -0.4980 C.3       1 ATP         0.1044
     16 O4'         2.4697    1.4219   -0.2462 O.3       1 ATP        -0.4079
     17 C3'         1.9404   -0.7419    0.5596 C.3       1 ATP         0.1439
     18 O3'         2.7418   -0.8086    1.7389 O.3       1 ATP        -0.5593
     19 C2'         0.7477    0.1630    0.7858 C.3       1 ATP         0.0644
     20 O2'         0.1373   -0.0577    2.0407 O.3       1 ATP        -0.5595
     21 C1'         1.3733    1.5427    0.6747 C.3       1 ATP         0.3792
     22 N9          0.4520    2.5240    0.1767 N.pl3     1 ATP        -0.5557
     23 C8          0.5305    3.2394   -0.9358 C.ar      1 ATP         0.2849
     24 N7         -0.4966    4.0680   -1.1145 N.pl3     1 ATP        -0.5117
     25 C5         -1.2879    3.8664   -0.0375 C.ar      1 ATP        -0.2787
     26 C6         -2.4754    4.4084    0.3577 C.ar      1 ATP         0.7736
     27 N6         -3.0892    5.3882   -0.4495 N.pl3     1 ATP        -0.9480
     28 N1         -3.0632    4.0158    1.5092 N.ar      1 ATP        -0.7442
     29 C2         -2.4008    3.0654    2.2262 C.ar      1 ATP         0.7202
     30 N3         -1.2259    2.4663    1.9260 N.ar      1 ATP        -0.6957
     31 C4         -0.7062    2.9047    0.7757 C.ar      1 ATP         0.6231
     32 HOG3        5.0456    4.6901   -4.7532 H         1 ATP         0.4452
     33 HOB2        0.5205    4.0725   -5.6491 H         1 ATP         0.4969
     34 HOA2        2.7034   -2.2988   -4.2585 H         1 ATP         0.4779
     35 H5'1        1.3494    0.2323   -2.1552 H         1 ATP         0.0280
     36 H5'2        2.1260   -1.3686   -2.0436 H         1 ATP         0.0280
     37 H4'         3.8049   -0.1388   -0.4009 H         1 ATP         0.2049
     38 H3'         1.6783   -1.7629    0.2715 H         1 ATP         0.1077
     39 HO3'        2.2232   -1.2979    2.3953 H         1 ATP         0.4255
     40 H2'        -0.0011    0.0027    0.0003 H         1 ATP         0.0584
     41 HO2'       -0.1563   -0.9855    2.0596 H         1 ATP         0.4149
     42 H1'         1.7826    1.9024    1.6451 H         1 ATP         0.1459
     43 H8          1.3437    3.1645   -1.6367 H         1 ATP         0.2739
     44 HN61       -2.6210    5.7042   -1.2748 H         1 ATP         0.4605
     45 HN62       -3.9356    5.8187   -0.1356 H         1 ATP         0.4605
     46 H2         -2.8752    2.7532    3.1495 H         1 ATP         0.0904
     47 H47        -0.6372    4.7004   -1.8900 H         1 ATP         0.5017
@<TRIPOS>BOND
     1    1    2 2
     2    1    3 1
     3    1    4 1
     4    1    8 1
     5    4   32 1
     6    5    6 2
     7    5    7 1
     8    5    8 1
     9    5   12 1
    10    7   33 1
    11    9   10 2
    12    9   11 1
    13    9   12 1
    14    9   13 1
    15   11   34 1
    16   13   14 1
    17   14   15 1
    18   14   35 1
    19   14   36 1
    20   15   16 1
    21   15   17 1
    22   15   37 1
    23   16   21 1
    24   17   18 1
    25   17   19 1
    26   17   38 1
    27   18   39 1
    28   19   20 1
    29   19   21 1
    30   19   40 1
    31   20   41 1
    32   21   22 1
    33   21   42 1
    34   22   23 ar
    35   22   31 ar
    36   23   24 ar
    37   23   43 1
    38   24   25 ar
    39   24   47 1
    40   25   26 ar
    41   25   31 ar
    42   26   27 1
    43   26   28 ar
    44   27   44 1
    45   27   45 1
    46   28   29 ar
    47   29   30 ar
    48   29   46 1
    49   30   31 ar
@<TRIPOS>SUBSTRUCTURE
     1 ATP         1 GROUP 0 A     ****
@<TRIPOS>MOLECULE
[[[5-(6-amino-7,8-dihydropurin-8-ylium-9-yl)-3,4-dihydroxy-tetrahydrofuran-2-yl]methoxy-hydroxy-phosphoryl]oxy-hydroxy-phosphoryl] hydrogen phosphate
   47    49     1     0     0
SMALL
USER_CHARGES

@<TRIPOS>ATOM
      1 PG         -1.4357   -1.0754   -4.4624 P.3       1 ATP         1.5449
      2 O1G        -2.3826   -0.2443   -5.2996 O.co2     1 ATP        -0.8177
      3 O2G        -0.5822   -0.4325   -3.3919 O.co2     1 ATP        -0.8177
      4 O3G        -2.2815   -2.2985   -3.7884 O.3       1 ATP        -0.7779
      5 PB          1.0160   -1.6727   -6.0150 P.3       1 ATP         1.9141
      6 O1B         1.5533   -2.7324   -6.9311 O.2       1 ATP        -0.8754
      7 O2B         0.9344   -0.1930   -6.6610 O.3       1 ATP        -0.8083
      8 O3B        -0.4775   -1.9379   -5.4592 O.3       1 ATP        -0.8025
      9 PA          2.1863   -2.4516   -3.4216 P.3       1 ATP         1.8015
     10 O1A         2.9721   -3.6759   -3.7924 O.2       1 ATP        -0.8201
     11 O2A         0.7440   -2.7630   -2.7578 O.3       1 ATP        -0.8103
     12 O3A         1.8439   -1.4543   -4.6456 O.3       1 ATP        -0.8038
     13 O5'         2.9195   -1.4814   -2.3527 O.3       1 ATP        -0.5730
     14 C5'         2.2816   -0.2918   -1.9206 C.3       1 ATP         0.1929
     15 C4'         2.7248    0.0226   -0.4980 C.3       1 ATP         0.1044
     16 O4'         2.4697    1.4219   -0.2462 O.3       1 ATP        -0.4079
     17 C3'         1.9404   -0.7419    0.5596 C.3       1 ATP         0.1439
     18 O3'         2.7418   -0.8086    1.7389 O.3       1 ATP        -0.5593
     19 C2'         0.7477    0.1630    0.7858 C.3       1 ATP         0.0644
     20 O2'         0.1373   -0.0577    2.0407 O.3       1 ATP        -0.5595
     21 C1'         1.3733    1.5427    0.6747 C.3       1 ATP         0.3792
     22 N9          0.4520    2.5240    0.1767 N.pl3     1 ATP        -0.5557
     23 C8         -0.3477    3.3274    0.8626 C.ar      1 ATP         0.2849
     24 N7         -1.0836    4.1323    0.0983 N.pl3     1 ATP        -0.5117
     25 C5         -0.7273    3.8194   -1.1674 C.ar      1 ATP        -0.2787
     26 C6         -1.1208    4.2877   -2.3863 C.ar      1 ATP         0.7736
     27 N6         -2.0932    5.3066   -2.4528 N.pl3     1 ATP        -0.9480
     28 N1         -0.5892    3.7853   -3.5223 N.ar      1 ATP        -0.7442
     29 C2          0.3427    2.8040   -3.3648 C.ar      1 ATP         0.7202
     30 N3          0.8012    2.2709   -2.2093 N.ar      1 ATP        -0.6957
     31 C4          0.2307    2.8167   -1.1312 C.ar      1 ATP         0.6231
     32 HOG3       -1.8055   -2.9328   -3.2110 H         1 ATP         0.4452
     33 HOB2        0.3806   -0.0531   -7.4583 H         1 ATP         0.4969
     34 HOA2        0.7070   -3.2799   -1.9251 H         1 ATP         0.4779
     35 H5'1        2.5577    0.5243   -2.5962 H         1 ATP         0.0280
     36 H5'2        1.1971   -0.4362   -1.9603 H         1 ATP         0.0280
     37 H4'         3.8049   -0.1388   -0.4009 H         1 ATP         0.2049
     38 H3'         1.6783   -1.7629    0.2715 H         1 ATP         0.1077
     39 HO3'        2.2232   -1.2979    2.3953 H         1 ATP         0.4255
     40 H2'        -0.0011    0.0027    0.0003 H         1 ATP         0.0584
     41 HO2'       -0.6141    0.5574    2.1082 H         1 ATP         0.4149
     42 H1'         1.7826    1.9024    1.6451 H         1 ATP         0.1459
     43 H8         -0.4040    3.3373    1.9373 H         1 ATP         0.2739
     44 HN61       -2.5133    5.6366   -1.6073 H         1 ATP         0.4605
     45 HN62       -2.4153    5.6161   -3.3477 H         1 ATP         0.4605
     46 H2          0.7668    2.4032   -4.2782 H         1 ATP         0.0904
     47 H47        -1.7549    4.8194    0.4122 H         1 ATP         0.5017
@<TRIPOS>BOND
     1    1    2 2
     2    1    3 1
     3    1    4 1
     4    1    8 1
     5    4   32 1
     6    5    6 2
     7    5    7 1
     8    5    8 1
     9    5   12 1
    10    7   33 1
    11    9   10 2
    12    9   11 1
    13    9   12 1
    14    9   13 1
    15   11   34 1
    16   13   14 1
    17   14   15 1
    18   14   35 1
    19   14   36 1
    20   15   16 1
    21   15   17 1
    22   15   37 1
    23   16   21 1
    24   17   18 1
    25   17   19 1
    26   17   38 1
    27   18   39 1
    28   19   20 1
    29   19   21 1
    30   19   40 1
    31   20   41 1
    32   21   22 1
    33   21   42 1
    34   22   23 ar
    35   22   31 ar
    36   23   24 ar
    37   23   43 1
    38   24   25 ar
    39   24   47 1
    40   25   26 ar
    41   25   31 ar
    42   26   27 1
    43   26   28 ar
    44   27   44 1
    45   27   45 1
    46   28   29 ar
    47   29   30 ar
    48   29   46 1
    49   30   31 ar
@<TRIPOS>SUBSTRUCTURE
     1 ATP         1 GROUP 0 A     ****
@<TRIPOS>MOLECULE
[[[5-(6-amino-7,8-dihydropurin-8-ylium-9-yl)-3,4-dihydroxy-tetrahydrofuran-2-yl]methoxy-hydroxy-phosphoryl]oxy-hydroxy-phosphoryl] hydrogen phosphate
   47    49     1     0     0
SMALL
USER_CHARGES

@<TRIPOS>ATOM
      1 PG          1.7999    0.9785   -7.8816 P.3       1 ATP         1.5449
      2 O1G         2.2580    2.2434   -8.5732 O.co2     1 ATP        -0.8177
      3 O2G         0.9076   -0.0132   -8.5945 O.co2     1 ATP        -0.8177
      4 O3G         3.1165    0.1882   -7.3270 O.3       1 ATP        -0.7779
      5 PB          0.5804    0.4806   -5.2277 P.3       1 ATP         1.9141
      6 O1B         0.0080    1.2520   -4.0752 O.2       1 ATP        -0.8754
      7 O2B        -0.4418   -0.5609   -5.9234 O.3       1 ATP        -0.8083
      8 O3B         1.1166    1.3802   -6.4577 O.3       1 ATP        -0.8025
      9 PA          3.3392   -0.0290   -4.3163 P.3       1 ATP         1.8015
     10 O1A         4.1272    0.9231   -5.1687 O.2       1 ATP        -0.8201
     11 O2A         4.0576   -1.4591   -4.0783 O.3       1 ATP        -0.8103
     12 O3A         1.8781   -0.4177   -4.8854 O.3       1 ATP        -0.8038
     13 O5'         3.0190    0.5130   -2.8246 O.3       1 ATP        -0.5730
     14 C5'         2.2816   -0.2918   -1.9206 C.3       1 ATP         0.1929
     15 C4'         2.7248    0.0226   -0.4980 C.3       1 ATP         0.1044
     16 O4'         2.4697    1.4219   -0.2462 O.3       1 ATP        -0.4079
     17 C3'         1.9404   -0.7419    0.5596 C.3       1 ATP         0.1439
     18 O3'         2.7418   -0.8086    1.7389 O.3       1 ATP        -0.5593
     19 C2'         0.7477    0.1630    0.7858 C.3       1 ATP         0.0644
     20 O2'         0.1373   -0.0577    2.0407 O.3       1 ATP        -0.5595
     21 C1'         1.3733    1.5427    0.6747 C.3       1 ATP         0.3792
     22 N9          0.4520    2.5240    0.1767 N.pl3     1 ATP        -0.5557
     23 C8         -0.2172    2.5216   -0.9668 C.ar      1 ATP         0.2849
     24 N7         -1.0011    3.5855   -1.1321 N.pl3     1 ATP        -0.5117
     25 C5         -0.8184    4.3200   -0.0123 C.ar      1 ATP        -0.2787
     26 C6         -1.3349    5.5079    0.4144 C.ar      1 ATP         0.7736
     27 N6         -2.2567    6.1930   -0.4036 N.pl3     1 ATP        -0.9480
     28 N1         -0.9716    6.0291    1.6069 N.ar      1 ATP        -0.7442
     29 C2         -0.0765    5.3009    2.3312 C.ar      1 ATP         0.7202
     30 N3          0.4933    4.1191    2.0023 N.ar      1 ATP        -0.6957
     31 C4          0.0865    3.6675    0.8123 C.ar      1 ATP         0.6231
     32 HOG3        2.9863   -0.6591   -6.8502 H         1 ATP         0.4452
     33 HOB2       -0.1294   -1.0968   -6.6832 H         1 ATP         0.4969
     34 HOA2        4.2678   -2.0191   -4.8556 H         1 ATP         0.4779
     35 H5'1        1.2149   -0.0786   -2.0446 H         1 ATP         0.0280
     36 H5'2        2.4641   -1.3459   -2.1539 H         1 ATP         0.0280
     37 H4'         3.8049   -0.1388   -0.4009 H         1 ATP         0.2049
     38 H3'         1.6783   -1.7629    0.2715 H         1 ATP         0.1077
     39 HO3'        2.2232   -1.2979    2.3953 H         1 ATP         0.4255
     40 H2'        -0.0011    0.0027    0.0003 H         1 ATP         0.0584
     41 HO2'       -0.1563   -0.9855    2.0596 H         1 ATP         0.4149
     42 H1'         1.7826    1.9024    1.6451 H         1 ATP         0.1459
     43 H8         -0.1423    1.7373   -1.6999 H         1 ATP         0.2739
     44 HN61       -2.4811    5.8206   -1.3042 H         1 ATP         0.4605
     45 HN62       -2.5986    7.0863   -0.1113 H         1 ATP         0.4605
     46 H2          0.2128    5.7222    3.2871 H         1 ATP         0.0904
     47 H47        -1.5947    3.7835   -1.9255 H         1 ATP         0.5017
@<TRIPOS>BOND
     1    1    2 2
     2    1    3 1
     3    1    4 1
     4    1    8 1
     5    4   32 1
     6    5    6 2
     7    5    7 1
     8    5    8 1
     9    5   12 1
    10    7   33 1
    11    9   10 2
    12    9   11 1
    13    9   12 1
    14    9   13 1
    15   11   34 1
    16   13   14 1
    17   14   15 1
    18   14   35 1
    19   14   36 1
    20   15   16 1
    21   15   17 1
    22   15   37 1
    23   16   21 1
    24   17   18 1
    25   17   19 1
    26   17   38 1
    27   18   39 1
    28   19   20 1
    29   19   21 1
    30   19   40 1
    31   20   41 1
    32   21   22 1
    33   21   42 1
    34   22   23 ar
    35   22   31 ar
    36   23   24 ar
    37   23   43 1
    38   24   25 ar
    39   24   47 1
    40   25   26 ar
    41   25   31 ar
    42   26   27 1
    43   26   28 ar
    44   27   44 1
    45   27   45 1
    46   28   29 ar
    47   29   30 ar
    48   29   46 1
    49   30   31 ar
@<TRIPOS>SUBSTRUCTURE
     1 ATP         1 GROUP 0 A     ****
@<TRIPOS>MOLECULE
[[[5-(6-amino-7,8-dihydropurin-8-ylium-9-yl)-3,4-dihydroxy-tetrahydrofuran-2-yl]methoxy-hydroxy-phosphoryl]oxy-hydroxy-phosphoryl] hydrogen phosphate
   47    49     1     0     0
SMALL
USER_CHARGES

@<TRIPOS>ATOM
      1 PG          2.2387   -3.7265   -6.9784 P.3       1 ATP         1.5449
      2 O1G         3.0468   -4.9817   -7.2220 O.co2     1 ATP        -0.8177
      3 O2G         1.5166   -3.0385   -8.1156 O.co2     1 ATP        -0.8177
      4 O3G         1.1641   -4.0281   -5.7868 O.3       1 ATP        -0.7779
      5 PB          2.8535   -1.1960   -5.5653 P.3       1 ATP         1.9141
      6 O1B         4.0244   -0.4969   -4.9398 O.2       1 ATP        -0.8754
      7 O2B         2.1390   -0.3836   -6.7666 O.3       1 ATP        -0.8083
      8 O3B         3.1808   -2.6396   -6.2122 O.3       1 ATP        -0.8025
      9 PA          1.5750   -2.4636   -3.2285 P.3       1 ATP         1.8015
     10 O1A         1.9420   -3.9067   -3.4205 O.2       1 ATP        -0.8201
     11 O2A         0.0757   -2.2276   -2.6680 O.3       1 ATP        -0.8103
     12 O3A         1.6402   -1.5518   -4.5606 O.3       1 ATP        -0.8038
     13 O5'         2.5233   -1.6623   -2.1893 O.3       1 ATP        -0.5730
     14 C5'         2.2816   -0.2918   -1.9206 C.3       1 ATP         0.1929
     15 C4'         2.7248    0.0226   -0.4980 C.3       1 ATP         0.1044
     16 O4'         2.4697    1.4219   -0.2462 O.3       1 ATP        -0.4079
     17 C3'         1.9404   -0.7419    0.5596 C.3       1 ATP         0.1439
     18 O3'         2.7418   -0.8086    1.7389 O.3       1 ATP        -0.5593
     19 C2'         0.7477    0.1630    0.7858 C.3       1 ATP         0.0644
     20 O2'         0.1373   -0.0577    2.0407 O.3       1 ATP        -0.5595
     21 C1'         1.3733    1.5427    0.6747 C.3       1 ATP         0.3792
     22 N9          0.4520    2.5240    0.1767 N.pl3     1 ATP        -0.5557
     23 C8          0.5305    3.2394   -0.9358 C.ar      1 ATP         0.2849
     24 N7         -0.4966    4.0680   -1.1145 N.pl3     1 ATP        -0.5117
     25 C5         -1.2879    3.8664   -0.0375 C.ar      1 ATP        -0.2787
     26 C6         -2.4754    4.4084    0.3577 C.ar      1 ATP         0.7736
     27 N6         -3.0892    5.3882   -0.4495 N.pl3     1 ATP        -0.9480
     28 N1         -3.0632    4.0158    1.5092 N.ar      1 ATP        -0.7442
     29 C2         -2.4008    3.0654    2.2262 C.ar      1 ATP         0.7202
     30 N3         -1.2259    2.4663    1.9260 N.ar      1 ATP        -0.6957
     31 C4         -0.7062    2.9047    0.7757 C.ar      1 ATP         0.6231
     32 HOG3        0.5600   -3.3069   -5.5091 H         1 ATP         0.4452
     33 HOB2        1.3667   -0.7859   -7.2180 H         1 ATP         0.4969
     34 HOA2       -0.1714   -2.6105   -1.7994 H         1 ATP         0.4779
     35 H5'1        2.8428    0.3149   -2.6387 H         1 ATP         0.0280
     36 H5'2        1.2124   -0.0897   -2.0417 H         1 ATP         0.0280
     37 H4'         3.8049   -0.1388   -0.4009 H         1 ATP         0.2049
     38 H3'         1.6783   -1.7629    0.2715 H         1 ATP         0.1077
     39 HO3'        2.2232   -1.2979    2.3953 H         1 ATP         0.4255
     40 H2'        -0.0011    0.0027    0.0003 H         1 ATP         0.0584
     41 HO2'       -0.1563   -0.9855    2.0596 H         1 ATP         0.4149
     42 H1'         1.7826    1.9024    1.6451 H         1 ATP         0.1459
     43 H8          1.3437    3.1645   -1.6367 H         1 ATP         0.2739
     44 HN61       -2.6210    5.7042   -1.2748 H         1 ATP         0.4605
     45 HN62       -3.9356    5.8187   -0.1356 H         1 ATP         0.4605
     46 H2         -2.8752    2.7532    3.1495 H         1 ATP         0.0904
     47 H47        -0.6372    4.7004   -1.8900 H         1 ATP         0.5017
@<TRIPOS>BOND
     1    1    2 2
     2    1    3 1
     3    1    4 1
     4    1    8 1
     5    4   32 1
     6    5    6 2
     7    5    7 1
     8    5    8 1
     9    5   12 1
    10    7   33 1
    11    9   10 2
    12    9   11 1
    13    9   12 1
    14    9   13 1
    15   11   34 1
    16   13   14 1
    17   14   15 1
    18   14   35 1
    19   14   36 1
    20   15   16 1
    21   15   17 1
    22   15   37 1
    23   16   21 1
    24   17   18 1
    25   17   19 1
    26   17   38 1
    27   18   39 1
    28   19   20 1
    29   19   21 1
    30   19   40 1
    31   20   41 1
    32   21   22 1
    33   21   42 1
    34   22   23 ar
    35   22   31 ar
    36   23   24 ar
    37   23   43 1
    38   24   25 ar
    39   24   47 1
    40   25   26 ar
    41   25   31 ar
    42   26   27 1
    43   26   28 ar
    44   27   44 1
    45   27   45 1
    46   28   29 ar
    47   29   30 ar
    48   29   46 1
    49   30   31 ar
@<TRIPOS>SUBSTRUCTURE
     1 ATP         1 GROUP 0 A     ****
@<TRIPOS>MOLECULE
[[[5-(6-amino-7,8-dihydropurin-8-ylium-9-yl)-3,4-dihydroxy-tetrahydrofuran-2-yl]methoxy-hydroxy-phosphoryl]oxy-hydroxy-phosphoryl] hydrogen phosphate
   47    49     1     0     0
SMALL
USER_CHARGES

@<TRIPOS>ATOM
      1 PG          2.0654   -3.1042   -8.0060 P.3       1 ATP         1.5449
      2 O1G         0.6242   -3.5182   -8.2051 O.co2     1 ATP        -0.8177
      3 O2G         3.1587   -4.1424   -7.8847 O.co2     1 ATP        -0.8177
      4 O3G         2.4703   -2.0587   -9.1928 O.3       1 ATP        -0.7779
      5 PB          1.3517   -0.7329   -6.3793 P.3       1 ATP         1.9141
      6 O1B         1.5242    0.3791   -7.3716 O.2       1 ATP        -0.8754
      7 O2B        -0.1747   -1.2182   -6.1603 O.3       1 ATP        -0.8083
      8 O3B         2.1469   -2.0950   -6.7291 O.3       1 ATP        -0.8025
      9 PA          3.3392   -0.0290   -4.3163 P.3       1 ATP         1.8015
     10 O1A         4.1272    0.9231   -5.1687 O.2       1 ATP        -0.8201
     11 O2A         4.0576   -1.4591   -4.0783 O.3       1 ATP        -0.8103
     12 O3A         1.8781   -0.4177   -4.8854 O.3       1 ATP        -0.8038
     13 O5'         3.0190    0.5130   -2.8246 O.3       1 ATP        -0.5730
     14 C5'         2.2816   -0.2918   -1.9206 C.3       1 ATP         0.1929
     15 C4'         2.7248    0.0226   -0.4980 C.3       1 ATP         0.1044
     16 O4'         2.4697    1.4219   -0.2462 O.3       1 ATP        -0.4079
     17 C3'         1.9404   -0.7419    0.5596 C.3       1 ATP         0.1439
     18 O3'         2.7418   -0.8086    1.7389 O.3       1 ATP        -0.5593
     19 C2'         0.7477    0.1630    0.7858 C.3       1 ATP         0.0644
     20 O2'         0.1373   -0.0577    2.0407 O.3       1 ATP        -0.5595
     21 C1'         1.3733    1.5427    0.6747 C.3       1 ATP         0.3792
     22 N9          0.4520    2.5240    0.1767 N.pl3     1 ATP        -0.5557
     23 C8          0.0623    3.6542    0.7479 C.ar      1 ATP         0.2849
     24 N7         -0.8074    4.3516    0.0193 N.pl3     1 ATP        -0.5117
     25 C5         -0.9855    3.6123   -1.0979 C.ar      1 ATP        -0.2787
     26 C6         -1.7474    3.7860   -2.2156 C.ar      1 ATP         0.7736
     27 N6         -2.5511    4.9389   -2.3303 N.pl3     1 ATP        -0.9480
     28 N1         -1.7375    2.8675   -3.2064 N.ar      1 ATP        -0.7442
     29 C2         -0.9330    1.7853   -3.0121 C.ar      1 ATP         0.7202
     30 N3         -0.1423    1.5179   -1.9478 N.ar      1 ATP        -0.6957
     31 C4         -0.2044    2.4690   -1.0113 C.ar      1 ATP         0.6231
     32 HOG3        3.3811   -1.6947   -9.2039 H         1 ATP         0.4452
     33 HOB2       -0.6760   -1.5686   -6.9270 H         1 ATP         0.4969
     34 HOA2        4.2678   -2.0191   -4.8556 H         1 ATP         0.4779
     35 H5'1        1.2149   -0.0786   -2.0446 H         1 ATP         0.0280
     36 H5'2        2.4641   -1.3459   -2.1539 H         1 ATP         0.0280
     37 H4'         3.8049   -0.1388   -0.4009 H         1 ATP         0.2049
     38 H3'         1.6783   -1.7629    0.2715 H         1 ATP         0.1077
     39 HO3'        2.2232   -1.2979    2.3953 H         1 ATP         0.4255
     40 H2'        -0.0011    0.0027    0.0003 H         1 ATP         0.0584
     41 HO2'       -0.6141    0.5574    2.1082 H         1 ATP         0.4149
     42 H1'         1.7826    1.9024    1.6451 H         1 ATP         0.1459
     43 H8          0.4111    3.9873    1.7100 H         1 ATP         0.2739
     44 HN61       -2.5859    5.5874   -1.5698 H         1 ATP         0.4605
     45 HN62       -3.1449    5.0423   -3.1284 H         1 ATP         0.4605
     46 H2         -0.9279    1.0504   -3.8088 H         1 ATP         0.0904
     47 H47        -1.2303    5.2364    0.2633 H         1 ATP         0.5017
@<TRIPOS>BOND
     1    1    2 2
     2    1    3 1
     3    1    4 1
     4    1    8 1
     5    4   32 1
     6    5    6 2
     7    5    7 1
     8    5    8 1
     9    5   12 1
    10    7   33 1
    11    9   10 2
    12    9   11 1
    13    9   12 1
    14    9   13 1
    15   11   34 1
    16   13   14 1
    17   14   15 1
    18   14   35 1
    19   14   36 1
    20   15   16 1
    21   15   17 1
    22   15   37 1
    23   16   21 1
    24   17   18 1
    25   17   19 1
    26   17   38 1
    27   18   39 1
    28   19   20 1
    29   19   21 1
    30   19   40 1
    31   20   41 1
    32   21   22 1
    33   21   42 1
    34   22   23 ar
    35   22   31 ar
    36   23   24 ar
    37   23   43 1
    38   24   25 ar
    39   24   47 1
    40   25   26 ar
    41   25   31 ar
    42   26   27 1
    43   26   28 ar
    44   27   44 1
    45   27   45 1
    46   28   29 ar
    47   29   30 ar
    48   29   46 1
    49   30   31 ar
@<TRIPOS>SUBSTRUCTURE
     1 ATP         1 GROUP 0 A     ****
@<TRIPOS>MOLECULE
[[[5-(6-amino-7,8-dihydropurin-8-ylium-9-yl)-3,4-dihydroxy-tetrahydrofuran-2-yl]methoxy-hydroxy-phosphoryl]oxy-hydroxy-phosphoryl] hydrogen phosphate
   47    49     1     0     0
SMALL
USER_CHARGES

@<TRIPOS>ATOM
      1 PG         -1.1163   -1.9793   -5.3146 P.3       1 ATP         1.5449
      2 O1G        -0.7321   -3.3645   -5.7855 O.co2     1 ATP        -0.8177
      3 O2G        -2.5641   -1.5417   -5.2985 O.co2     1 ATP        -0.8177
      4 O3G        -0.4862   -1.7473   -3.8264 O.3       1 ATP        -0.7779
      5 PB          1.3517   -0.7329   -6.3793 P.3       1 ATP         1.9141
      6 O1B         2.0090   -1.8958   -7.0624 O.2       1 ATP        -0.8754
      7 O2B         1.4988    0.6803   -7.1504 O.3       1 ATP        -0.8083
      8 O3B        -0.2393   -0.8843   -6.1438 O.3       1 ATP        -0.8025
      9 PA          3.3392   -0.0290   -4.3163 P.3       1 ATP         1.8015
     10 O1A         4.1272    0.9231   -5.1687 O.2       1 ATP        -0.8201
     11 O2A         4.0576   -1.4591   -4.0783 O.3       1 ATP        -0.8103
     12 O3A         1.8781   -0.4177   -4.8854 O.3       1 ATP        -0.8038
     13 O5'         3.0190    0.5130   -2.8246 O.3       1 ATP        -0.5730
     14 C5'         2.2816   -0.2918   -1.9206 C.3       1 ATP         0.1929
     15 C4'         2.7248    0.0226   -0.4980 C.3       1 ATP         0.1044
     16 O4'         2.4697    1.4219   -0.2462 O.3       1 ATP        -0.4079
     17 C3'         1.9404   -0.7419    0.5596 C.3       1 ATP         0.1439
     18 O3'         2.7418   -0.8086    1.7389 O.3       1 ATP        -0.5593
     19 C2'         0.7477    0.1630    0.7858 C.3       1 ATP         0.0644
     20 O2'         0.1373   -0.0577    2.0407 O.3       1 ATP        -0.5595
     21 C1'         1.3733    1.5427    0.6747 C.3       1 ATP         0.3792
     22 N9          0.4520    2.5240    0.1767 N.pl3     1 ATP        -0.5557
     23 C8          0.0623    3.6542    0.7479 C.ar      1 ATP         0.2849
     24 N7         -0.8074    4.3516    0.0193 N.pl3     1 ATP        -0.5117
     25 C5         -0.9855    3.6123   -1.0979 C.ar      1 ATP        -0.2787
     26 C6         -1.7474    3.7860   -2.2156 C.ar      1 ATP         0.7736
     27 N6         -2.5511    4.9389   -2.3303 N.pl3     1 ATP        -0.9480
     28 N1         -1.7375    2.8675   -3.2064 N.ar      1 ATP        -0.7442
     29 C2         -0.9330    1.7853   -3.0121 C.ar      1 ATP         0.7202
     30 N3         -0.1423    1.5179   -1.9478 N.ar      1 ATP        -0.6957
     31 C4         -0.2044    2.4690   -1.0113 C.ar      1 ATP         0.6231
     32 HOG3       -0.6477   -0.8892   -3.3795 H         1 ATP         0.4452
     33 HOB2        2.3963    1.0398   -7.3155 H         1 ATP         0.4969
     34 HOA2        4.2678   -2.0191   -4.8556 H         1 ATP         0.4779
     35 H5'1        1.2149   -0.0786   -2.0446 H         1 ATP         0.0280
     36 H5'2        2.4641   -1.3459   -2.1539 H         1 ATP         0.0280
     37 H4'         3.8049   -0.1388   -0.4009 H         1 ATP         0.2049
     38 H3'         1.6783   -1.7629    0.2715 H         1 ATP         0.1077
     39 HO3'        3.5554   -1.2733    1.4914 H         1 ATP         0.4255
     40 H2'        -0.0011    0.0027    0.0003 H         1 ATP         0.0584
     41 HO2'       -0.6141    0.5574    2.1082 H         1 ATP         0.4149
     42 H1'         1.7826    1.9024    1.6451 H         1 ATP         0.1459
     43 H8          0.4111    3.9873    1.7100 H         1 ATP         0.2739
     44 HN61       -2.5859    5.5874   -1.5698 H         1 ATP         0.4605
     45 HN62       -3.1449    5.0423   -3.1284 H         1 ATP         0.4605
     46 H2         -0.9279    1.0504   -3.8088 H         1 ATP         0.0904
     47 H47        -1.2303    5.2364    0.2633 H         1 ATP         0.5017
@<TRIPOS>BOND
     1    1    2 2
     2    1    3 1
     3    1    4 1
     4    1    8 1
     5    4   32 1
     6    5    6 2
     7    5    7 1
     8    5    8 1
     9    5   12 1
    10    7   33 1
    11    9   10 2
    12    9   11 1
    13    9   12 1
    14    9   13 1
    15   11   34 1
    16   13   14 1
    17   14   15 1
    18   14   35 1
    19   14   36 1
    20   15   16 1
    21   15   17 1
    22   15   37 1
    23   16   21 1
    24   17   18 1
    25   17   19 1
    26   17   38 1
    27   18   39 1
    28   19   20 1
    29   19   21 1
    30   19   40 1
    31   20   41 1
    32   21   22 1
    33   21   42 1
    34   22   23 ar
    35   22   31 ar
    36   23   24 ar
    37   23   43 1
    38   24   25 ar
    39   24   47 1
    40   25   26 ar
    41   25   31 ar
    42   26   27 1
    43   26   28 ar
    44   27   44 1
    45   27   45 1
    46   28   29 ar
    47   29   30 ar
    48   29   46 1
    49   30   31 ar
@<TRIPOS>SUBSTRUCTURE
     1 ATP         1 GROUP 0 A     ****
@<TRIPOS>MOLECULE
[[[5-(6-amino-7,8-dihydropurin-8-ylium-9-yl)-3,4-dihydroxy-tetrahydrofuran-2-yl]methoxy-hydroxy-phosphoryl]oxy-hydroxy-phosphoryl] hydrogen phosphate
   47    49     1     0     0
SMALL
USER_CHARGES

@<TRIPOS>ATOM
      1 PG         -1.0024    1.5680   -4.5912 P.3       1 ATP         1.5449
      2 O1G        -1.7862    2.6467   -3.8770 O.co2     1 ATP        -0.8177
      3 O2G        -0.4045    0.4097   -3.8239 O.co2     1 ATP        -0.8177
      4 O3G        -1.9274    0.9711   -5.7969 O.3       1 ATP        -0.7779
      5 PB          1.4877    3.1024   -5.0640 P.3       1 ATP         1.9141
      6 O1B         2.3202    3.5961   -6.2103 O.2       1 ATP        -0.8754
      7 O2B         0.9292    4.2586   -4.0817 O.3       1 ATP        -0.8083
      8 O3B         0.1651    2.2744   -5.4822 O.3       1 ATP        -0.8025
      9 PA          2.8849    0.6141   -4.3169 P.3       1 ATP         1.8015
     10 O1A         4.0138    0.5846   -5.3061 O.2       1 ATP        -0.8201
     11 O2A         1.6272   -0.3226   -4.7151 O.3       1 ATP        -0.8103
     12 O3A         2.2239    2.0669   -4.0670 O.3       1 ATP        -0.8038
     13 O5'         3.2874    0.1332   -2.8242 O.3       1 ATP        -0.5730
     14 C5'         2.2816   -0.2918   -1.9206 C.3       1 ATP         0.1929
     15 C4'         2.7248    0.0226   -0.4980 C.3       1 ATP         0.1044
     16 O4'         2.4697    1.4219   -0.2462 O.3       1 ATP        -0.4079
     17 C3'         1.9404   -0.7419    0.5596 C.3       1 ATP         0.1439
     18 O3'         2.7418   -0.8086    1.7389 O.3       1 ATP        -0.5593
     19 C2'         0.7477    0.1630    0.7858 C.3       1 ATP         0.0644
     20 O2'         0.1373   -0.0577    2.0407 O.3       1 ATP        -0.5595
     21 C1'         1.3733    1.5427    0.6747 C.3       1 ATP         0.3792
     22 N9          0.4520    2.5240    0.1767 N.pl3     1 ATP        -0.5557
     23 C8         -0.2172    2.5216   -0.9668 C.ar      1 ATP         0.2849
     24 N7         -1.0011    3.5855   -1.1321 N.pl3     1 ATP        -0.5117
     25 C5         -0.8184    4.3200   -0.0123 C.ar      1 ATP        -0.2787
     26 C6         -1.3349    5.5079    0.4144 C.ar      1 ATP         0.7736
     27 N6         -2.2567    6.1930   -0.4036 N.pl3     1 ATP        -0.9480
     28 N1         -0.9716    6.0291    1.6069 N.ar      1 ATP        -0.7442
     29 C2         -0.0765    5.3009    2.3312 C.ar      1 ATP         0.7202
     30 N3          0.4933    4.1191    2.0023 N.ar      1 ATP        -0.6957
     31 C4          0.0865    3.6675    0.8123 C.ar      1 ATP         0.6231
     32 HOG3       -1.5582    0.2570   -6.3590 H         1 ATP         0.4452
     33 HOB2        0.3474    4.9560   -4.4522 H         1 ATP         0.4969
     34 HOA2        1.1551   -0.1496   -5.5573 H         1 ATP         0.4779
     35 H5'1        1.3494    0.2323   -2.1552 H         1 ATP         0.0280
     36 H5'2        2.1260   -1.3686   -2.0436 H         1 ATP         0.0280
     37 H4'         3.8049   -0.1388   -0.4009 H         1 ATP         0.2049
     38 H3'         1.6783   -1.7629    0.2715 H         1 ATP         0.1077
     39 HO3'        2.2232   -1.2979    2.3953 H         1 ATP         0.4255
     40 H2'        -0.0011    0.0027    0.0003 H         1 ATP         0.0584
     41 HO2'       -0.1563   -0.9855    2.0596 H         1 ATP         0.4149
     42 H1'         1.7826    1.9024    1.6451 H         1 ATP         0.1459
     43 H8         -0.1423    1.7373   -1.6999 H         1 ATP         0.2739
     44 HN61       -2.4811    5.8206   -1.3042 H         1 ATP         0.4605
     45 HN62       -2.5986    7.0863   -0.1113 H         1 ATP         0.4605
     46 H2          0.2128    5.7222    3.2871 H         1 ATP         0.0904
     47 H47        -1.5947    3.7835   -1.9255 H         1 ATP         0.5017
@<TRIPOS>BOND
     1    1    2 2
     2    1    3 1
     3    1    4 1
     4    1    8 1
     5    4   32 1
     6    5    6 2
     7    5    7 1
     8    5    8 1
     9    5   12 1
    10    7   33 1
    11    9   10 2
    12    9   11 1
    13    9   12 1
    14    9   13 1
    15   11   34 1
    16   13   14 1
    17   14   15 1
    18   14   35 1
    19   14   36 1
    20   15   16 1
    21   15   17 1
    22   15   37 1
    23   16   21 1
    24   17   18 1
    25   17   19 1
    26   17   38 1
    27   18   39 1
    28   19   20 1
    29   19   21 1
    30   19   40 1
    31   20   41 1
    32   21   22 1
    33   21   42 1
    34   22   23 ar
    35   22   31 ar
    36   23   24 ar
    37   23   43 1
    38   24   25 ar
    39   24   47 1
    40   25   26 ar
    41   25   31 ar
    42   26   27 1
    43   26   28 ar
    44   27   44 1
    45   27   45 1
    46   28   29 ar
    47   29   30 ar
    48   29   46 1
    49   30   31 ar
@<TRIPOS>SUBSTRUCTURE
     1 ATP         1 GROUP 0 A     ****
@<TRIPOS>MOLECULE
[[[5-(6-amino-7,8-dihydropurin-8-ylium-9-yl)-3,4-dihydroxy-tetrahydrofuran-2-yl]methoxy-hydroxy-phosphoryl]oxy-hydroxy-phosphoryl] hydrogen phosphate
   47    49     1     0     0
SMALL
USER_CHARGES

@<TRIPOS>ATOM
      1 PG          2.2387   -3.7265   -6.9784 P.3       1 ATP         1.5449
      2 O1G         3.0468   -4.9817   -7.2220 O.co2     1 ATP        -0.8177
      3 O2G         1.5166   -3.0385   -8.1156 O.co2     1 ATP        -0.8177
      4 O3G         1.1641   -4.0281   -5.7868 O.3       1 ATP        -0.7779
      5 PB          2.8535   -1.1960   -5.5653 P.3       1 ATP         1.9141
      6 O1B         4.0244   -0.4969   -4.9398 O.2       1 ATP        -0.8754
      7 O2B         2.1390   -0.3836   -6.7666 O.3       1 ATP        -0.8083
      8 O3B         3.1808   -2.6396   -6.2122 O.3       1 ATP        -0.8025
      9 PA          1.5750   -2.4636   -3.2285 P.3       1 ATP         1.8015
     10 O1A         1.9420   -3.9067   -3.4205 O.2       1 ATP        -0.8201
     11 O2A         0.0757   -2.2276   -2.6680 O.3       1 ATP        -0.8103
     12 O3A         1.6402   -1.5518   -4.5606 O.3       1 ATP        -0.8038
     13 O5'         2.5233   -1.6623   -2.1893 O.3       1 ATP        -0.5730
     14 C5'         2.2816   -0.2918   -1.9206 C.3       1 ATP         0.1929
     15 C4'         2.7248    0.0226   -0.4980 C.3       1 ATP         0.1044
     16 O4'         2.4697    1.4219   -0.2462 O.3       1 ATP        -0.4079
     17 C3'         1.9404   -0.7419    0.5596 C.3       1 ATP         0.1439
     18 O3'         2.7418   -0.8086    1.7389 O.3       1 ATP        -0.5593
     19 C2'         0.7477    0.1630    0.7858 C.3       1 ATP         0.0644
     20 O2'         0.1373   -0.0577    2.0407 O.3       1 ATP        -0.5595
     21 C1'         1.3733    1.5427    0.6747 C.3       1 ATP         0.3792
     22 N9          0.4520    2.5240    0.1767 N.pl3     1 ATP        -0.5557
     23 C8         -0.3477    3.3274    0.8626 C.ar      1 ATP         0.2849
     24 N7         -1.0836    4.1323    0.0983 N.pl3     1 ATP        -0.5117
     25 C5         -0.7273    3.8194   -1.1674 C.ar      1 ATP        -0.2787
     26 C6         -1.1208    4.2877   -2.3863 C.ar      1 ATP         0.7736
     27 N6         -2.0932    5.3066   -2.4528 N.pl3     1 ATP        -0.9480
     28 N1         -0.5892    3.7853   -3.5223 N.ar      1 ATP        -0.7442
     29 C2          0.3427    2.8040   -3.3648 C.ar      1 ATP         0.7202
     30 N3          0.8012    2.2709   -2.2093 N.ar      1 ATP        -0.6957
     31 C4          0.2307    2.8167   -1.1312 C.ar      1 ATP         0.6231
     32 HOG3        0.5600   -3.3069   -5.5091 H         1 ATP         0.4452
     33 HOB2        2.6658   -0.1489   -7.5600 H         1 ATP         0.4969
     34 HOA2       -0.1714   -2.6105   -1.7994 H         1 ATP         0.4779
     35 H5'1        2.8428    0.3149   -2.6387 H         1 ATP         0.0280
     36 H5'2        1.2124   -0.0897   -2.0417 H         1 ATP         0.0280
     37 H4'         3.8049   -0.1388   -0.4009 H         1 ATP         0.2049
     38 H3'         1.6783   -1.7629    0.2715 H         1 ATP         0.1077
     39 HO3'        2.2232   -1.2979    2.3953 H         1 ATP         0.4255
     40 H2'        -0.0011    0.0027    0.0003 H         1 ATP         0.0584
     41 HO2'       -0.6141    0.5574    2.1082 H         1 ATP         0.4149
     42 H1'         1.7826    1.9024    1.6451 H         1 ATP         0.1459
     43 H8         -0.4040    3.3373    1.9373 H         1 ATP         0.2739
     44 HN61       -2.5133    5.6366   -1.6073 H         1 ATP         0.4605
     45 HN62       -2.4153    5.6161   -3.3477 H         1 ATP         0.4605
     46 H2          0.7668    2.4032   -4.2782 H         1 ATP         0.0904
     47 H47        -1.7549    4.8194    0.4122 H         1 ATP         0.5017
@<TRIPOS>BOND
     1    1    2 2
     2    1    3 1
     3    1    4 1
     4    1    8 1
     5    4   32 1
     6    5    6 2
     7    5    7 1
     8    5    8 1
     9    5   12 1
    10    7   33 1
    11    9   10 2
    12    9   11 1
    13    9   12 1
    14    9   13 1
    15   11   34 1
    16   13   14 1
    17   14   15 1
    18   14   35 1
    19   14   36 1
    20   15   16 1
    21   15   17 1
    22   15   37 1
    23   16   21 1
    24   17   18 1
    25   17   19 1
    26   17   38 1
    27   18   39 1
    28   19   20 1
    29   19   21 1
    30   19   40 1
    31   20   41 1
    32   21   22 1
    33   21   42 1
    34   22   23 ar
    35   22   31 ar
    36   23   24 ar
    37   23   43 1
    38   24   25 ar
    39   24   47 1
    40   25   26 ar
    41   25   31 ar
    42   26   27 1
    43   26   28 ar
    44   27   44 1
    45   27   45 1
    46   28   29 ar
    47   29   30 ar
    48   29   46 1
    49   30   31 ar
@<TRIPOS>SUBSTRUCTURE
     1 ATP         1 GROUP 0 A     ****
@<TRIPOS>MOLECULE
[[[5-(6-amino-7,8-dihydropurin-8-ylium-9-yl)-3,4-dihydroxy-tetrahydrofuran-2-yl]methoxy-hydroxy-phosphoryl]oxy-hydroxy-phosphoryl] hydrogen phosphate
   47    49     1     0     0
SMALL
USER_CHARGES

@<TRIPOS>ATOM
      1 PG          4.8129    5.1499   -4.9519 P.3       1 ATP         1.5449
      2 O1G         5.8657    5.2149   -3.8678 O.co2     1 ATP        -0.8177
      3 O2G         3.9179    6.3365   -5.2332 O.co2     1 ATP        -0.8177
      4 O3G         5.5349    4.7012   -6.3458 O.3       1 ATP        -0.7779
      5 PB          2.8456    3.4554   -3.5248 P.3       1 ATP         1.9141
      6 O1B         3.4335    3.4034   -2.1455 O.2       1 ATP        -0.8754
      7 O2B         1.6432    4.5198   -3.7117 O.3       1 ATP        -0.8083
      8 O3B         3.8862    3.8330   -4.7013 O.3       1 ATP        -0.8025
      9 PA          2.8849    0.6141   -4.3169 P.3       1 ATP         1.8015
     10 O1A         4.0138    0.5846   -5.3061 O.2       1 ATP        -0.8201
     11 O2A         1.6272   -0.3226   -4.7151 O.3       1 ATP        -0.8103
     12 O3A         2.2239    2.0669   -4.0670 O.3       1 ATP        -0.8038
     13 O5'         3.2874    0.1332   -2.8242 O.3       1 ATP        -0.5730
     14 C5'         2.2816   -0.2918   -1.9206 C.3       1 ATP         0.1929
     15 C4'         2.7248    0.0226   -0.4980 C.3       1 ATP         0.1044
     16 O4'         2.4697    1.4219   -0.2462 O.3       1 ATP        -0.4079
     17 C3'         1.9404   -0.7419    0.5596 C.3       1 ATP         0.1439
     18 O3'         2.7418   -0.8086    1.7389 O.3       1 ATP        -0.5593
     19 C2'         0.7477    0.1630    0.7858 C.3       1 ATP         0.0644
     20 O2'         0.1373   -0.0577    2.0407 O.3       1 ATP        -0.5595
     21 C1'         1.3733    1.5427    0.6747 C.3       1 ATP         0.3792
     22 N9          0.4520    2.5240    0.1767 N.pl3     1 ATP        -0.5557
     23 C8          0.0623    3.6542    0.7479 C.ar      1 ATP         0.2849
     24 N7         -0.8074    4.3516    0.0193 N.pl3     1 ATP        -0.5117
     25 C5         -0.9855    3.6123   -1.0979 C.ar      1 ATP        -0.2787
     26 C6         -1.7474    3.7860   -2.2156 C.ar      1 ATP         0.7736
     27 N6         -2.5511    4.9389   -2.3303 N.pl3     1 ATP        -0.9480
     28 N1         -1.7375    2.8675   -3.2064 N.ar      1 ATP        -0.7442
     29 C2         -0.9330    1.7853   -3.0121 C.ar      1 ATP         0.7202
     30 N3         -0.1423    1.5179   -1.9478 N.ar      1 ATP        -0.6957
     31 C4         -0.2044    2.4690   -1.0113 C.ar      1 ATP         0.6231
     32 HOG3        4.9816    4.6127   -7.1510 H         1 ATP         0.4452
     33 HOB2        1.8203    5.4700   -3.5450 H         1 ATP         0.4969
     34 HOA2        1.1551   -0.1496   -5.5573 H         1 ATP         0.4779
     35 H5'1        1.3494    0.2323   -2.1552 H         1 ATP         0.0280
     36 H5'2        2.1260   -1.3686   -2.0436 H         1 ATP         0.0280
     37 H4'         3.8049   -0.1388   -0.4009 H         1 ATP         0.2049
     38 H3'         1.6783   -1.7629    0.2715 H         1 ATP         0.1077
     39 HO3'        2.2232   -1.2979    2.3953 H         1 ATP         0.4255
     40 H2'        -0.0011    0.0027    0.0003 H         1 ATP         0.0584
     41 HO2'       -0.6141    0.5574    2.1082 H         1 ATP         0.4149
     42 H1'         1.7826    1.9024    1.6451 H         1 ATP         0.1459
     43 H8          0.4111    3.9873    1.7100 H         1 ATP         0.2739
     44 HN61       -3.0729    5.0887   -3.1702 H         1 ATP         0.4605
     45 HN62       -2.5136    5.6334   -1.6116 H         1 ATP         0.4605
     46 H2         -0.9279    1.0504   -3.8088 H         1 ATP         0.0904
     47 H47        -1.2303    5.2364    0.2633 H         1 ATP         0.5017
@<TRIPOS>BOND
     1    1    2 2
     2    1    3 1
     3    1    4 1
     4    1    8 1
     5    4   32 1
     6    5    6 2
     7    5    7 1
     8    5    8 1
     9    5   12 1
    10    7   33 1
    11    9   10 2
    12    9   11 1
    13    9   12 1
    14    9   13 1
    15   11   34 1
    16   13   14 1
    17   14   15 1
    18   14   35 1
    19   14   36 1
    20   15   16 1
    21   15   17 1
    22   15   37 1
    23   16   21 1
    24   17   18 1
    25   17   19 1
    26   17   38 1
    27   18   39 1
    28   19   20 1
    29   19   21 1
    30   19   40 1
    31   20   41 1
    32   21   22 1
    33   21   42 1
    34   22   23 ar
    35   22   31 ar
    36   23   24 ar
    37   23   43 1
    38   24   25 ar
    39   24   47 1
    40   25   26 ar
    41   25   31 ar
    42   26   27 1
    43   26   28 ar
    44   27   44 1
    45   27   45 1
    46   28   29 ar
    47   29   30 ar
    48   29   46 1
    49   30   31 ar
@<TRIPOS>SUBSTRUCTURE
     1 ATP         1 GROUP 0 A     ****
@<TRIPOS>MOLECULE
[[[5-(6-amino-7,8-dihydropurin-8-ylium-9-yl)-3,4-dihydroxy-tetrahydrofuran-2-yl]methoxy-hydroxy-phosphoryl]oxy-hydroxy-phosphoryl] hydrogen phosphate
   47    49     1     0     0
SMALL
USER_CHARGES

@<TRIPOS>ATOM
      1 PG          2.7979    0.9069   -6.3013 P.3       1 ATP         1.5449
      2 O1G         2.6813    1.2403   -4.8304 O.co2     1 ATP        -0.8177
      3 O2G         1.5616    0.7225   -7.1530 O.co2     1 ATP        -0.8177
      4 O3G         3.7551    2.0242   -7.0090 O.3       1 ATP        -0.7779
      5 PB          4.8985   -1.0269   -5.5100 P.3       1 ATP         1.9141
      6 O1B         5.5618   -2.2656   -6.0360 O.2       1 ATP        -0.8754
      7 O2B         5.8973    0.2136   -5.2323 O.3       1 ATP        -0.8083
      8 O3B         3.7563   -0.4008   -6.4657 O.3       1 ATP        -0.8025
      9 PA          2.8569   -2.1455   -3.6982 P.3       1 ATP         1.8015
     10 O1A         3.0916   -3.6213   -3.8417 O.2       1 ATP        -0.8201
     11 O2A         1.6263   -1.5787   -4.5826 O.3       1 ATP        -0.8103
     12 O3A         4.1019   -1.2047   -4.1164 O.3       1 ATP        -0.8038
     13 O5'         2.5233   -1.6623   -2.1893 O.3       1 ATP        -0.5730
     14 C5'         2.2816   -0.2918   -1.9206 C.3       1 ATP         0.1929
     15 C4'         2.7248    0.0226   -0.4980 C.3       1 ATP         0.1044
     16 O4'         2.4697    1.4219   -0.2462 O.3       1 ATP        -0.4079
     17 C3'         1.9404   -0.7419    0.5596 C.3       1 ATP         0.1439
     18 O3'         2.7418   -0.8086    1.7389 O.3       1 ATP        -0.5593
     19 C2'         0.7477    0.1630    0.7858 C.3       1 ATP         0.0644
     20 O2'         0.1373   -0.0577    2.0407 O.3       1 ATP        -0.5595
     21 C1'         1.3733    1.5427    0.6747 C.3       1 ATP         0.3792
     22 N9          0.4520    2.5240    0.1767 N.pl3     1 ATP        -0.5557
     23 C8         -0.3477    3.3274    0.8626 C.ar      1 ATP         0.2849
     24 N7         -1.0836    4.1323    0.0983 N.pl3     1 ATP        -0.5117
     25 C5         -0.7273    3.8194   -1.1674 C.ar      1 ATP        -0.2787
     26 C6         -1.1208    4.2877   -2.3863 C.ar      1 ATP         0.7736
     27 N6         -2.0932    5.3066   -2.4528 N.pl3     1 ATP        -0.9480
     28 N1         -0.5892    3.7853   -3.5223 N.ar      1 ATP        -0.7442
     29 C2          0.3427    2.8040   -3.3648 C.ar      1 ATP         0.7202
     30 N3          0.8012    2.2709   -2.2093 N.ar      1 ATP        -0.6957
     31 C4          0.2307    2.8167   -1.1312 C.ar      1 ATP         0.6231
     32 HOG3        3.9306    1.9469   -7.9710 H         1 ATP         0.4452
     33 HOB2        6.4184    0.5796   -5.9783 H         1 ATP         0.4969
     34 HOA2        1.6578   -1.6789   -5.5579 H         1 ATP         0.4779
     35 H5'1        2.8428    0.3149   -2.6387 H         1 ATP         0.0280
     36 H5'2        1.2124   -0.0897   -2.0417 H         1 ATP         0.0280
     37 H4'         3.8049   -0.1388   -0.4009 H         1 ATP         0.2049
     38 H3'         1.6783   -1.7629    0.2715 H         1 ATP         0.1077
     39 HO3'        2.2232   -1.2979    2.3953 H         1 ATP         0.4255
     40 H2'        -0.0011    0.0027    0.0003 H         1 ATP         0.0584
     41 HO2'       -0.6141    0.5574    2.1082 H         1 ATP         0.4149
     42 H1'         1.7826    1.9024    1.6451 H         1 ATP         0.1459
     43 H8         -0.4040    3.3373    1.9373 H         1 ATP         0.2739
     44 HN61       -2.5133    5.6366   -1.6073 H         1 ATP         0.4605
     45 HN62       -2.4153    5.6161   -3.3477 H         1 ATP         0.4605
     46 H2          0.7668    2.4032   -4.2782 H         1 ATP         0.0904
     47 H47        -1.7549    4.8194    0.4122 H         1 ATP         0.5017
@<TRIPOS>BOND
     1    1    2 2
     2    1    3 1
     3    1    4 1
     4    1    8 1
     5    4   32 1
     6    5    6 2
     7    5    7 1
     8    5    8 1
     9    5   12 1
    10    7   33 1
    11    9   10 2
    12    9   11 1
    13    9   12 1
    14    9   13 1
    15   11   34 1
    16   13   14 1
    17   14   15 1
    18   14   35 1
    19   14   36 1
    20   15   16 1
    21   15   17 1
    22   15   37 1
    23   16   21 1
    24   17   18 1
    25   17   19 1
    26   17   38 1
    27   18   39 1
    28   19   20 1
    29   19   21 1
    30   19   40 1
    31   20   41 1
    32   21   22 1
    33   21   42 1
    34   22   23 ar
    35   22   31 ar
    36   23   24 ar
    37   23   43 1
    38   24   25 ar
    39   24   47 1
    40   25   26 ar
    41   25   31 ar
    42   26   27 1
    43   26   28 ar
    44   27   44 1
    45   27   45 1
    46   28   29 ar
    47   29   30 ar
    48   29   46 1
    49   30   31 ar
@<TRIPOS>SUBSTRUCTURE
     1 ATP         1 GROUP 0 A     ****
@<TRIPOS>MOLECULE
[[[5-(6-amino-7,8-dihydropurin-8-ylium-9-yl)-3,4-dihydroxy-tetrahydrofuran-2-yl]methoxy-hydroxy-phosphoryl]oxy-hydroxy-phosphoryl] hydrogen phosphate
   47    49     1     0     0
SMALL
USER_CHARGES

@<TRIPOS>ATOM
      1 PG          6.0796    1.5268   -4.5818 P.3       1 ATP         1.5449
      2 O1G         7.3442    1.7905   -3.7948 O.co2     1 ATP        -0.8177
      3 O2G         4.7226    1.8457   -3.9948 O.co2     1 ATP        -0.8177
      4 O3G         6.2082    2.2714   -6.0291 O.3       1 ATP        -0.7779
      5 PB          4.8985   -1.0269   -5.5100 P.3       1 ATP         1.9141
      6 O1B         4.0680   -0.5722   -6.6738 O.2       1 ATP        -0.8754
      7 O2B         5.6408   -2.4479   -5.7184 O.3       1 ATP        -0.8083
      8 O3B         6.0907   -0.0237   -5.0833 O.3       1 ATP        -0.8025
      9 PA          2.8569   -2.1455   -3.6982 P.3       1 ATP         1.8015
     10 O1A         3.0916   -3.6213   -3.8417 O.2       1 ATP        -0.8201
     11 O2A         1.6263   -1.5787   -4.5826 O.3       1 ATP        -0.8103
     12 O3A         4.1019   -1.2047   -4.1164 O.3       1 ATP        -0.8038
     13 O5'         2.5233   -1.6623   -2.1893 O.3       1 ATP        -0.5730
     14 C5'         2.2816   -0.2918   -1.9206 C.3       1 ATP         0.1929
     15 C4'         2.7248    0.0226   -0.4980 C.3       1 ATP         0.1044
     16 O4'         2.4697    1.4219   -0.2462 O.3       1 ATP        -0.4079
     17 C3'         1.9404   -0.7419    0.5596 C.3       1 ATP         0.1439
     18 O3'         2.7418   -0.8086    1.7389 O.3       1 ATP        -0.5593
     19 C2'         0.7477    0.1630    0.7858 C.3       1 ATP         0.0644
     20 O2'         0.1373   -0.0577    2.0407 O.3       1 ATP        -0.5595
     21 C1'         1.3733    1.5427    0.6747 C.3       1 ATP         0.3792
     22 N9          0.4520    2.5240    0.1767 N.pl3     1 ATP        -0.5557
     23 C8          0.0623    3.6542    0.7479 C.ar      1 ATP         0.2849
     24 N7         -0.8074    4.3516    0.0193 N.pl3     1 ATP        -0.5117
     25 C5         -0.9855    3.6123   -1.0979 C.ar      1 ATP        -0.2787
     26 C6         -1.7474    3.7860   -2.2156 C.ar      1 ATP         0.7736
     27 N6         -2.5511    4.9389   -2.3303 N.pl3     1 ATP        -0.9480
     28 N1         -1.7375    2.8675   -3.2064 N.ar      1 ATP        -0.7442
     29 C2         -0.9330    1.7853   -3.0121 C.ar      1 ATP         0.7202
     30 N3         -0.1423    1.5179   -1.9478 N.ar      1 ATP        -0.6957
     31 C4         -0.2044    2.4690   -1.0113 C.ar      1 ATP         0.6231
     32 HOG3        5.4623    2.1949   -6.6616 H         1 ATP         0.4452
     33 HOB2        5.0976   -3.2469   -5.8876 H         1 ATP         0.4969
     34 HOA2        0.7265   -1.9369   -4.4273 H         1 ATP         0.4779
     35 H5'1        2.8428    0.3149   -2.6387 H         1 ATP         0.0280
     36 H5'2        1.2124   -0.0897   -2.0417 H         1 ATP         0.0280
     37 H4'         3.8049   -0.1388   -0.4009 H         1 ATP         0.2049
     38 H3'         1.6783   -1.7629    0.2715 H         1 ATP         0.1077
     39 HO3'        3.5554   -1.2733    1.4914 H         1 ATP         0.4255
     40 H2'        -0.0011    0.0027    0.0003 H         1 ATP         0.0584
     41 HO2'       -0.6141    0.5574    2.1082 H         1 ATP         0.4149
     42 H1'         1.7826    1.9024    1.6451 H         1 ATP         0.1459
     43 H8          0.4111    3.9873    1.7100 H         1 ATP         0.2739
     44 HN61       -2.5859    5.5874   -1.5698 H         1 ATP         0.4605
     45 HN62       -3.1449    5.0423   -3.1284 H         1 ATP         0.4605
     46 H2         -0.9279    1.0504   -3.8088 H         1 ATP         0.0904
     47 H47        -1.2303    5.2364    0.2633 H         1 ATP         0.5017
@<TRIPOS>BOND
     1    1    2 2
     2    1    3 1
     3    1    4 1
     4    1    8 1
     5    4   32 1
     6    5    6 2
     7    5    7 1
     8    5    8 1
     9    5   12 1
    10    7   33 1
    11    9   10 2
    12    9   11 1
    13    9   12 1
    14    9   13 1
    15   11   34 1
    16   13   14 1
    17   14   15 1
    18   14   35 1
    19   14   36 1
    20   15   16 1
    21   15   17 1
    22   15   37 1
    23   16   21 1
    24   17   18 1
    25   17   19 1
    26   17   38 1
    27   18   39 1
    28   19   20 1
    29   19   21 1
    30   19   40 1
    31   20   41 1
    32   21   22 1
    33   21   42 1
    34   22   23 ar
    35   22   31 ar
    36   23   24 ar
    37   23   43 1
    38   24   25 ar
    39   24   47 1
    40   25   26 ar
    41   25   31 ar
    42   26   27 1
    43   26   28 ar
    44   27   44 1
    45   27   45 1
    46   28   29 ar
    47   29   30 ar
    48   29   46 1
    49   30   31 ar
@<TRIPOS>SUBSTRUCTURE
     1 ATP         1 GROUP 0 A     ****
@<TRIPOS>MOLECULE
[[[5-(6-amino-7,8-dihydropurin-8-ylium-9-yl)-3,4-dihydroxy-tetrahydrofuran-2-yl]methoxy-hydroxy-phosphoryl]oxy-hydroxy-phosphoryl] hydrogen phosphate
   47    49     1     0     0
SMALL
USER_CHARGES

@<TRIPOS>ATOM
      1 PG          3.6935    4.0003   -6.3109 P.3       1 ATP         1.5449
      2 O1G         3.5046    5.4676   -6.6263 O.co2     1 ATP        -0.8177
      3 O2G         2.6992    2.9700   -6.7983 O.co2     1 ATP        -0.8177
      4 O3G         5.1859    3.5555   -6.8013 O.3       1 ATP        -0.7779
      5 PB          2.8456    3.4554   -3.5248 P.3       1 ATP         1.9141
      6 O1B         3.4335    3.4034   -2.1455 O.2       1 ATP        -0.8754
      7 O2B         1.6432    4.5198   -3.7117 O.3       1 ATP        -0.8083
      8 O3B         3.8862    3.8330   -4.7013 O.3       1 ATP        -0.8025
      9 PA          2.8849    0.6141   -4.3169 P.3       1 ATP         1.8015
     10 O1A         4.0138    0.5846   -5.3061 O.2       1 ATP        -0.8201
     11 O2A         1.6272   -0.3226   -4.7151 O.3       1 ATP        -0.8103
     12 O3A         2.2239    2.0669   -4.0670 O.3       1 ATP        -0.8038
     13 O5'         3.2874    0.1332   -2.8242 O.3       1 ATP        -0.5730
     14 C5'         2.2816   -0.2918   -1.9206 C.3       1 ATP         0.1929
     15 C4'         2.7248    0.0226   -0.4980 C.3       1 ATP         0.1044
     16 O4'         2.4697    1.4219   -0.2462 O.3       1 ATP        -0.4079
     17 C3'         1.9404   -0.7419    0.5596 C.3       1 ATP         0.1439
     18 O3'         2.7418   -0.8086    1.7389 O.3       1 ATP        -0.5593
     19 C2'         0.7477    0.1630    0.7858 C.3       1 ATP         0.0644
     20 O2'         0.1373   -0.0577    2.0407 O.3       1 ATP        -0.5595
     21 C1'         1.3733    1.5427    0.6747 C.3       1 ATP         0.3792
     22 N9          0.4520    2.5240    0.1767 N.pl3     1 ATP        -0.5557
     23 C8          0.5305    3.2394   -0.9358 C.ar      1 ATP         0.2849
     24 N7         -0.4966    4.0680   -1.1145 N.pl3     1 ATP        -0.5117
     25 C5         -1.2879    3.8664   -0.0375 C.ar      1 ATP        -0.2787
     26 C6         -2.4754    4.4084    0.3577 C.ar      1 ATP         0.7736
     27 N6         -3.0892    5.3882   -0.4495 N.pl3     1 ATP        -0.9480
     28 N1         -3.0632    4.0158    1.5092 N.ar      1 ATP        -0.7442
     29 C2         -2.4008    3.0654    2.2262 C.ar      1 ATP         0.7202
     30 N3         -1.2259    2.4663    1.9260 N.ar      1 ATP        -0.6957
     31 C4         -0.7062    2.9047    0.7757 C.ar      1 ATP         0.6231
     32 HOG3        5.4639    2.6246   -6.6657 H         1 ATP         0.4452
     33 HOB2        1.8203    5.4700   -3.5450 H         1 ATP         0.4969
     34 HOA2        1.7696   -1.2871   -4.8221 H         1 ATP         0.4779
     35 H5'1        1.3494    0.2323   -2.1552 H         1 ATP         0.0280
     36 H5'2        2.1260   -1.3686   -2.0436 H         1 ATP         0.0280
     37 H4'         3.8049   -0.1388   -0.4009 H         1 ATP         0.2049
     38 H3'         1.6783   -1.7629    0.2715 H         1 ATP         0.1077
     39 HO3'        3.5554   -1.2733    1.4914 H         1 ATP         0.4255
     40 H2'        -0.0011    0.0027    0.0003 H         1 ATP         0.0584
     41 HO2'       -0.1563   -0.9855    2.0596 H         1 ATP         0.4149
     42 H1'         1.7826    1.9024    1.6451 H         1 ATP         0.1459
     43 H8          1.3437    3.1645   -1.6367 H         1 ATP         0.2739
     44 HN61       -2.6210    5.7042   -1.2748 H         1 ATP         0.4605
     45 HN62       -3.9356    5.8187   -0.1356 H         1 ATP         0.4605
     46 H2         -2.8752    2.7532    3.1495 H         1 ATP         0.0904
     47 H47        -0.6372    4.7004   -1.8900 H         1 ATP         0.5017
@<TRIPOS>BOND
     1    1    2 2
     2    1    3 1
     3    1    4 1
     4    1    8 1
     5    4   32 1
     6    5    6 2
     7    5    7 1
     8    5    8 1
     9    5   12 1
    10    7   33 1
    11    9   10 2
    12    9   11 1
    13    9   12 1
    14    9   13 1
    15   11   34 1
    16   13   14 1
    17   14   15 1
    18   14   35 1
    19   14   36 1
    20   15   16 1
    21   15   17 1
    22   15   37 1
    23   16   21 1
    24   17   18 1
    25   17   19 1
    26   17   38 1
    27   18   39 1
    28   19   20 1
    29   19   21 1
    30   19   40 1
    31   20   41 1
    32   21   22 1
    33   21   42 1
    34   22   23 ar
    35   22   31 ar
    36   23   24 ar
    37   23   43 1
    38   24   25 ar
    39   24   47 1
    40   25   26 ar
    41   25   31 ar
    42   26   27 1
    43   26   28 ar
    44   27   44 1
    45   27   45 1
    46   28   29 ar
    47   29   30 ar
    48   29   46 1
    49   30   31 ar
@<TRIPOS>SUBSTRUCTURE
     1 ATP         1 GROUP 0 A     ****
@<TRIPOS>MOLECULE
[[[5-(6-amino-7,8-dihydropurin-8-ylium-9-yl)-3,4-dihydroxy-tetrahydrofuran-2-yl]methoxy-hydroxy-phosphoryl]oxy-hydroxy-phosphoryl] hydrogen phosphate
   47    49     1     0     0
SMALL
USER_CHARGES

@<TRIPOS>ATOM
      1 PG          3.7032    4.3675   -6.5551 P.3       1 ATP         1.5449
      2 O1G         2.5138    5.1575   -7.0542 O.co2     1 ATP        -0.8177
      3 O2G         4.8726    4.0706   -7.4674 O.co2     1 ATP        -0.8177
      4 O3G         4.2684    5.0858   -5.2022 O.3       1 ATP        -0.7779
      5 PB          2.0581    2.6662   -4.7725 P.3       1 ATP         1.9141
      6 O1B         2.3317    3.2788   -3.4306 O.2       1 ATP        -0.8754
      7 O2B         0.6661    3.1218   -5.4569 O.3       1 ATP        -0.8083
      8 O3B         3.1677    2.9718   -5.9062 O.3       1 ATP        -0.8025
      9 PA          3.0863   -0.0757   -4.4171 P.3       1 ATP         1.8015
     10 O1A         4.3570   -0.0352   -5.2156 O.2       1 ATP        -0.8201
     11 O2A         2.2680   -1.4661   -4.5396 O.3       1 ATP        -0.8103
     12 O3A         1.9950    1.0527   -4.7988 O.3       1 ATP        -0.8038
     13 O5'         3.2874    0.1332   -2.8242 O.3       1 ATP        -0.5730
     14 C5'         2.2816   -0.2918   -1.9206 C.3       1 ATP         0.1929
     15 C4'         2.7248    0.0226   -0.4980 C.3       1 ATP         0.1044
     16 O4'         2.4697    1.4219   -0.2462 O.3       1 ATP        -0.4079
     17 C3'         1.9404   -0.7419    0.5596 C.3       1 ATP         0.1439
     18 O3'         2.7418   -0.8086    1.7389 O.3       1 ATP        -0.5593
     19 C2'         0.7477    0.1630    0.7858 C.3       1 ATP         0.0644
     20 O2'         0.1373   -0.0577    2.0407 O.3       1 ATP        -0.5595
     21 C1'         1.3733    1.5427    0.6747 C.3       1 ATP         0.3792
     22 N9          0.4520    2.5240    0.1767 N.pl3     1 ATP        -0.5557
     23 C8          0.0623    3.6542    0.7479 C.ar      1 ATP         0.2849
     24 N7         -0.8074    4.3516    0.0193 N.pl3     1 ATP        -0.5117
     25 C5         -0.9855    3.6123   -1.0979 C.ar      1 ATP        -0.2787
     26 C6         -1.7474    3.7860   -2.2156 C.ar      1 ATP         0.7736
     27 N6         -2.5511    4.9389   -2.3303 N.pl3     1 ATP        -0.9480
     28 N1         -1.7375    2.8675   -3.2064 N.ar      1 ATP        -0.7442
     29 C2         -0.9330    1.7853   -3.0121 C.ar      1 ATP         0.7202
     30 N3         -0.1423    1.5179   -1.9478 N.ar      1 ATP        -0.6957
     31 C4         -0.2044    2.4690   -1.0113 C.ar      1 ATP         0.6231
     32 HOG3        5.0456    4.6901   -4.7532 H         1 ATP         0.4452
     33 HOB2        0.5205    4.0725   -5.6491 H         1 ATP         0.4969
     34 HOA2        1.9544   -1.7554   -5.4228 H         1 ATP         0.4779
     35 H5'1        1.3494    0.2323   -2.1552 H         1 ATP         0.0280
     36 H5'2        2.1260   -1.3686   -2.0436 H         1 ATP         0.0280
     37 H4'         3.8049   -0.1388   -0.4009 H         1 ATP         0.2049
     38 H3'         1.6783   -1.7629    0.2715 H         1 ATP         0.1077
     39 HO3'        2.2232   -1.2979    2.3953 H         1 ATP         0.4255
     40 H2'        -0.0011    0.0027    0.0003 H         1 ATP         0.0584
     41 HO2'       -0.6141    0.5574    2.1082 H         1 ATP         0.4149
     42 H1'         1.7826    1.9024    1.6451 H         1 ATP         0.1459
     43 H8          0.4111    3.9873    1.7100 H         1 ATP         0.2739
     44 HN61       -3.0729    5.0887   -3.1702 H         1 ATP         0.4605
     45 HN62       -2.5136    5.6334   -1.6116 H         1 ATP         0.4605
     46 H2         -0.9279    1.0504   -3.8088 H         1 ATP         0.0904
     47 H47        -1.2303    5.2364    0.2633 H         1 ATP         0.5017
@<TRIPOS>BOND
     1    1    2 2
     2    1    3 1
     3    1    4 1
     4    1    8 1
     5    4   32 1
     6    5    6 2
     7    5    7 1
     8    5    8 1
     9    5   12 1
    10    7   33 1
    11    9   10 2
    12    9   11 1
    13    9   12 1
    14    9   13 1
    15   11   34 1
    16   13   14 1
    17   14   15 1
    18   14   35 1
    19   14   36 1
    20   15   16 1
    21   15   17 1
    22   15   37 1
    23   16   21 1
    24   17   18 1
    25   17   19 1
    26   17   38 1
    27   18   39 1
    28   19   20 1
    29   19   21 1
    30   19   40 1
    31   20   41 1
    32   21   22 1
    33   21   42 1
    34   22   23 ar
    35   22   31 ar
    36   23   24 ar
    37   23   43 1
    38   24   25 ar
    39   24   47 1
    40   25   26 ar
    41   25   31 ar
    42   26   27 1
    43   26   28 ar
    44   27   44 1
    45   27   45 1
    46   28   29 ar
    47   29   30 ar
    48   29   46 1
    49   30   31 ar
@<TRIPOS>SUBSTRUCTURE
     1 ATP         1 GROUP 0 A     ****
@<TRIPOS>MOLECULE
[[[5-(6-amino-7,8-dihydropurin-8-ylium-9-yl)-3,4-dihydroxy-tetrahydrofuran-2-yl]methoxy-hydroxy-phosphoryl]oxy-hydroxy-phosphoryl] hydrogen phosphate
   47    49     1     0     0
SMALL
USER_CHARGES

@<TRIPOS>ATOM
      1 PG         -3.9607   -2.4890    7.2486 P.3       1 ATP         1.5449
      2 O1G        -4.9625   -1.3655    7.3973 O.co2     1 ATP        -0.8177
      3 O2G        -3.4432   -3.2297    8.4617 O.co2     1 ATP        -0.8177
      4 O3G        -4.5609   -3.5785    6.1910 O.3       1 ATP        -0.7779
      5 PB         -1.4016   -2.7029    5.7709 P.3       1 ATP         1.9141
      6 O1B        -0.4486   -1.8271    5.0123 O.2       1 ATP        -0.8754
      7 O2B        -0.7600   -3.4608    7.0467 O.3       1 ATP        -0.8083
      8 O3B        -2.6949   -1.9477    6.3766 O.3       1 ATP        -0.8025
      9 PA         -3.0227   -3.8710    3.6008 P.3       1 ATP         1.8015
     10 O1A        -4.3193   -3.1291    3.7499 O.2       1 ATP        -0.8201
     11 O2A        -3.1911   -5.4342    3.2190 O.3       1 ATP        -0.8103
     12 O3A        -2.0836   -3.8907    4.9152 O.3       1 ATP        -0.8038
     13 O5'        -2.0397   -3.2817    2.4571 O.3       1 ATP        -0.5730
     14 C5'        -0.7840   -3.8935    2.2172 C.3       1 ATP         0.1929
     15 C4'        -0.0724   -3.1466    1.1027 C.3       1 ATP         0.1044
     16 O4'        -0.8674   -3.1929   -0.0945 O.3       1 ATP        -0.4079
     17 C3'         0.1338   -1.6715    1.4027 C.3       1 ATP         0.1439
     18 O3'         1.2893   -1.4445    2.1808 O.3       1 ATP        -0.5593
     19 C2'         0.2158   -1.0724    0.0128 C.3       1 ATP         0.0644
     20 O2'         1.5141   -1.2448   -0.5513 O.3       1 ATP        -0.5595
     21 C1'        -0.7897   -1.9176   -0.7583 C.3       1 ATP         0.3792
     22 N9         -2.1040   -1.3333   -0.7704 N.pl3     1 ATP        -0.5557
     23 C8         -3.0822   -1.4850    0.1102 C.ar      1 ATP         0.2849
     24 N7         -4.1844   -0.7999   -0.1888 N.pl3     1 ATP        -0.5117
     25 C5         -3.8875   -0.1651   -1.3445 C.ar      1 ATP        -0.2787
     26 C6         -4.5941    0.6799   -2.1486 C.ar      1 ATP         0.7736
     27 N6         -5.9138    1.0274   -1.7939 N.pl3     1 ATP        -0.9480
     28 N1         -4.0421    1.1824   -3.2748 N.ar      1 ATP        -0.7442
     29 C2         -2.7637    0.7937   -3.5405 C.ar      1 ATP         0.7202
     30 N3         -1.9788   -0.0343   -2.8140 N.ar      1 ATP        -0.6957
     31 C4         -2.5915   -0.4902   -1.7174 C.ar      1 ATP         0.6231
     32 HOG3       -4.0249   -4.3738    5.9851 H         1 ATP         0.4452
     33 HOB2       -0.3754   -2.9253    7.7729 H         1 ATP         0.4969
     34 HOA2       -3.6842   -6.0212    3.8309 H         1 ATP         0.4779
     35 H5'1       -0.1920   -3.8613    3.1376 H         1 ATP         0.0280
     36 H5'2       -0.9467   -4.9385    1.9342 H         1 ATP         0.0280
     37 H4'         0.8886   -3.6448    0.8780 H         1 ATP         0.2049
     38 H3'        -0.7373   -1.2358    1.9870 H         1 ATP         0.1077
     39 HO3'        1.3408   -0.4870    2.3219 H         1 ATP         0.4255
     40 H2'        -0.0384   -0.0310    0.0096 H         1 ATP         0.0584
     41 HO2'        2.1463   -0.7958    0.0370 H         1 ATP         0.4149
     42 H1'        -0.4769   -2.1002   -1.8093 H         1 ATP         0.1459
     43 H8         -3.0031   -2.1011    0.9891 H         1 ATP         0.2739
     44 HN61       -6.3271    0.6117   -0.9836 H         1 ATP         0.4605
     45 HN62       -6.4471    1.6092   -2.4083 H         1 ATP         0.4605
     46 H2         -2.3243    1.1986   -4.4449 H         1 ATP         0.0904
     47 H47        -5.0436   -0.7722    0.3425 H         1 ATP         0.5017
@<TRIPOS>BOND
     1    1    2 2
     2    1    3 1
     3    1    4 1
     4    1    8 1
     5    4   32 1
     6    5    6 2
     7    5    7 1
     8    5    8 1
     9    5   12 1
    10    7   33 1
    11    9   10 2
    12    9   11 1
    13    9   12 1
    14    9   13 1
    15   11   34 1
    16   13   14 1
    17   14   15 1
    18   14   35 1
    19   14   36 1
    20   15   16 1
    21   15   17 1
    22   15   37 1
    23   16   21 1
    24   17   18 1
    25   17   19 1
    26   17   38 1
    27   18   39 1
    28   19   20 1
    29   19   21 1
    30   19   40 1
    31   20   41 1
    32   21   22 1
    33   21   42 1
    34   22   23 ar
    35   22   31 ar
    36   23   24 ar
    37   23   43 1
    38   24   25 ar
    39   24   47 1
    40   25   26 ar
    41   25   31 ar
    42   26   27 1
    43   26   28 ar
    44   27   44 1
    45   27   45 1
    46   28   29 ar
    47   29   30 ar
    48   29   46 1
    49   30   31 ar
@<TRIPOS>SUBSTRUCTURE
     1 ATP         1 GROUP 0 A     ****
@<TRIPOS>MOLECULE
[[[5-(6-amino-7,8-dihydropurin-8-ylium-9-yl)-3,4-dihydroxy-tetrahydrofuran-2-yl]methoxy-hydroxy-phosphoryl]oxy-hydroxy-phosphoryl] hydrogen phosphate
   47    49     1     0     0
SMALL
USER_CHARGES

@<TRIPOS>ATOM
      1 PG          3.8077    0.1690   -7.9916 P.3       1 ATP         1.5449
      2 O1G         2.4685    0.7897   -8.3223 O.co2     1 ATP        -0.8177
      3 O2G         4.4154   -0.8842   -8.8912 O.co2     1 ATP        -0.8177
      4 O3G         4.8957    1.3690   -7.7869 O.3       1 ATP        -0.7779
      5 PB          4.8985   -1.0269   -5.5100 P.3       1 ATP         1.9141
      6 O1B         5.5618   -2.2656   -6.0360 O.2       1 ATP        -0.8754
      7 O2B         5.8973    0.2136   -5.2323 O.3       1 ATP        -0.8083
      8 O3B         3.7563   -0.4008   -6.4657 O.3       1 ATP        -0.8025
      9 PA          2.8569   -2.1455   -3.6982 P.3       1 ATP         1.8015
     10 O1A         3.0916   -3.6213   -3.8417 O.2       1 ATP        -0.8201
     11 O2A         1.6263   -1.5787   -4.5826 O.3       1 ATP        -0.8103
     12 O3A         4.1019   -1.2047   -4.1164 O.3       1 ATP        -0.8038
     13 O5'         2.5233   -1.6623   -2.1893 O.3       1 ATP        -0.5730
     14 C5'         2.2816   -0.2918   -1.9206 C.3       1 ATP         0.1929
     15 C4'         2.7248    0.0226   -0.4980 C.3       1 ATP         0.1044
     16 O4'         2.4697    1.4219   -0.2462 O.3       1 ATP        -0.4079
     17 C3'         1.9404   -0.7419    0.5596 C.3       1 ATP         0.1439
     18 O3'         2.7418   -0.8086    1.7389 O.3       1 ATP        -0.5593
     19 C2'         0.7477    0.1630    0.7858 C.3       1 ATP         0.0644
     20 O2'         0.1373   -0.0577    2.0407 O.3       1 ATP        -0.5595
     21 C1'         1.3733    1.5427    0.6747 C.3       1 ATP         0.3792
     22 N9          0.4520    2.5240    0.1767 N.pl3     1 ATP        -0.5557
     23 C8          0.0623    3.6542    0.7479 C.ar      1 ATP         0.2849
     24 N7         -0.8074    4.3516    0.0193 N.pl3     1 ATP        -0.5117
     25 C5         -0.9855    3.6123   -1.0979 C.ar      1 ATP        -0.2787
     26 C6         -1.7474    3.7860   -2.2156 C.ar      1 ATP         0.7736
     27 N6         -2.5511    4.9389   -2.3303 N.pl3     1 ATP        -0.9480
     28 N1         -1.7375    2.8675   -3.2064 N.ar      1 ATP        -0.7442
     29 C2         -0.9330    1.7853   -3.0121 C.ar      1 ATP         0.7202
     30 N3         -0.1423    1.5179   -1.9478 N.ar      1 ATP        -0.6957
     31 C4         -0.2044    2.4690   -1.0113 C.ar      1 ATP         0.6231
     32 HOG3        5.8205    1.1281   -7.5656 H         1 ATP         0.4452
     33 HOB2        6.4184    0.5796   -5.9783 H         1 ATP         0.4969
     34 HOA2        1.6578   -1.6789   -5.5579 H         1 ATP         0.4779
     35 H5'1        2.8428    0.3149   -2.6387 H         1 ATP         0.0280
     36 H5'2        1.2124   -0.0897   -2.0417 H         1 ATP         0.0280
     37 H4'         3.8049   -0.1388   -0.4009 H         1 ATP         0.2049
     38 H3'         1.6783   -1.7629    0.2715 H         1 ATP         0.1077
     39 HO3'        3.5554   -1.2733    1.4914 H         1 ATP         0.4255
     40 H2'        -0.0011    0.0027    0.0003 H         1 ATP         0.0584
     41 HO2'       -0.6141    0.5574    2.1082 H         1 ATP         0.4149
     42 H1'         1.7826    1.9024    1.6451 H         1 ATP         0.1459
     43 H8          0.4111    3.9873    1.7100 H         1 ATP         0.2739
     44 HN61       -2.5859    5.5874   -1.5698 H         1 ATP         0.4605
     45 HN62       -3.1449    5.0423   -3.1284 H         1 ATP         0.4605
     46 H2         -0.9279    1.0504   -3.8088 H         1 ATP         0.0904
     47 H47        -1.2303    5.2364    0.2633 H         1 ATP         0.5017
@<TRIPOS>BOND
     1    1    2 2
     2    1    3 1
     3    1    4 1
     4    1    8 1
     5    4   32 1
     6    5    6 2
     7    5    7 1
     8    5    8 1
     9    5   12 1
    10    7   33 1
    11    9   10 2
    12    9   11 1
    13    9   12 1
    14    9   13 1
    15   11   34 1
    16   13   14 1
    17   14   15 1
    18   14   35 1
    19   14   36 1
    20   15   16 1
    21   15   17 1
    22   15   37 1
    23   16   21 1
    24   17   18 1
    25   17   19 1
    26   17   38 1
    27   18   39 1
    28   19   20 1
    29   19   21 1
    30   19   40 1
    31   20   41 1
    32   21   22 1
    33   21   42 1
    34   22   23 ar
    35   22   31 ar
    36   23   24 ar
    37   23   43 1
    38   24   25 ar
    39   24   47 1
    40   25   26 ar
    41   25   31 ar
    42   26   27 1
    43   26   28 ar
    44   27   44 1
    45   27   45 1
    46   28   29 ar
    47   29   30 ar
    48   29   46 1
    49   30   31 ar
@<TRIPOS>SUBSTRUCTURE
     1 ATP         1 GROUP 0 A     ****
@<TRIPOS>MOLECULE
[[[5-(6-amino-7,8-dihydropurin-8-ylium-9-yl)-3,4-dihydroxy-tetrahydrofuran-2-yl]methoxy-hydroxy-phosphoryl]oxy-hydroxy-phosphoryl] hydrogen phosphate
   47    49     1     0     0
SMALL
USER_CHARGES

@<TRIPOS>ATOM
      1 PG          3.6935    4.0003   -6.3109 P.3       1 ATP         1.5449
      2 O1G         3.0419    2.7478   -6.8536 O.co2     1 ATP        -0.8177
      3 O2G         4.9797    4.5248   -6.9097 O.co2     1 ATP        -0.8177
      4 O3G         2.5881    5.2018   -6.3191 O.3       1 ATP        -0.7779
      5 PB          2.8456    3.4554   -3.5248 P.3       1 ATP         1.9141
      6 O1B         3.4335    3.4034   -2.1455 O.2       1 ATP        -0.8754
      7 O2B         1.6432    4.5198   -3.7117 O.3       1 ATP        -0.8083
      8 O3B         3.8862    3.8330   -4.7013 O.3       1 ATP        -0.8025
      9 PA          2.8849    0.6141   -4.3169 P.3       1 ATP         1.8015
     10 O1A         4.0138    0.5846   -5.3061 O.2       1 ATP        -0.8201
     11 O2A         1.6272   -0.3226   -4.7151 O.3       1 ATP        -0.8103
     12 O3A         2.2239    2.0669   -4.0670 O.3       1 ATP        -0.8038
     13 O5'         3.2874    0.1332   -2.8242 O.3       1 ATP        -0.5730
     14 C5'         2.2816   -0.2918   -1.9206 C.3       1 ATP         0.1929
     15 C4'         2.7248    0.0226   -0.4980 C.3       1 ATP         0.1044
     16 O4'         2.4697    1.4219   -0.2462 O.3       1 ATP        -0.4079
     17 C3'         1.9404   -0.7419    0.5596 C.3       1 ATP         0.1439
     18 O3'         2.7418   -0.8086    1.7389 O.3       1 ATP        -0.5593
     19 C2'         0.7477    0.1630    0.7858 C.3       1 ATP         0.0644
     20 O2'         0.1373   -0.0577    2.0407 O.3       1 ATP        -0.5595
     21 C1'         1.3733    1.5427    0.6747 C.3       1 ATP         0.3792
     22 N9          0.4520    2.5240    0.1767 N.pl3     1 ATP        -0.5557
     23 C8          0.0623    3.6542    0.7479 C.ar      1 ATP         0.2849
     24 N7         -0.8074    4.3516    0.0193 N.pl3     1 ATP        -0.5117
     25 C5         -0.9855    3.6123   -1.0979 C.ar      1 ATP        -0.2787
     26 C6         -1.7474    3.7860   -2.2156 C.ar      1 ATP         0.7736
     27 N6         -2.5511    4.9389   -2.3303 N.pl3     1 ATP        -0.9480
     28 N1         -1.7375    2.8675   -3.2064 N.ar      1 ATP        -0.7442
     29 C2         -0.9330    1.7853   -3.0121 C.ar      1 ATP         0.7202
     30 N3         -0.1423    1.5179   -1.9478 N.ar      1 ATP        -0.6957
     31 C4         -0.2044    2.4690   -1.0113 C.ar      1 ATP         0.6231
     32 HOG3        2.8580    6.0870   -5.9938 H         1 ATP         0.4452
     33 HOB2        1.8203    5.4700   -3.5450 H         1 ATP         0.4969
     34 HOA2        1.1551   -0.1496   -5.5573 H         1 ATP         0.4779
     35 H5'1        1.3494    0.2323   -2.1552 H         1 ATP         0.0280
     36 H5'2        2.1260   -1.3686   -2.0436 H         1 ATP         0.0280
     37 H4'         3.8049   -0.1388   -0.4009 H         1 ATP         0.2049
     38 H3'         1.6783   -1.7629    0.2715 H         1 ATP         0.1077
     39 HO3'        2.2232   -1.2979    2.3953 H         1 ATP         0.4255
     40 H2'        -0.0011    0.0027    0.0003 H         1 ATP         0.0584
     41 HO2'       -0.6141    0.5574    2.1082 H         1 ATP         0.4149
     42 H1'         1.7826    1.9024    1.6451 H         1 ATP         0.1459
     43 H8          0.4111    3.9873    1.7100 H         1 ATP         0.2739
     44 HN61       -3.0729    5.0887   -3.1702 H         1 ATP         0.4605
     45 HN62       -2.5136    5.6334   -1.6116 H         1 ATP         0.4605
     46 H2         -0.9279    1.0504   -3.8088 H         1 ATP         0.0904
     47 H47        -1.2303    5.2364    0.2633 H         1 ATP         0.5017
@<TRIPOS>BOND
     1    1    2 2
     2    1    3 1
     3    1    4 1
     4    1    8 1
     5    4   32 1
     6    5    6 2
     7    5    7 1
     8    5    8 1
     9    5   12 1
    10    7   33 1
    11    9   10 2
    12    9   11 1
    13    9   12 1
    14    9   13 1
    15   11   34 1
    16   13   14 1
    17   14   15 1
    18   14   35 1
    19   14   36 1
    20   15   16 1
    21   15   17 1
    22   15   37 1
    23   16   21 1
    24   17   18 1
    25   17   19 1
    26   17   38 1
    27   18   39 1
    28   19   20 1
    29   19   21 1
    30   19   40 1
    31   20   41 1
    32   21   22 1
    33   21   42 1
    34   22   23 ar
    35   22   31 ar
    36   23   24 ar
    37   23   43 1
    38   24   25 ar
    39   24   47 1
    40   25   26 ar
    41   25   31 ar
    42   26   27 1
    43   26   28 ar
    44   27   44 1
    45   27   45 1
    46   28   29 ar
    47   29   30 ar
    48   29   46 1
    49   30   31 ar
@<TRIPOS>SUBSTRUCTURE
     1 ATP         1 GROUP 0 A     ****
@<TRIPOS>MOLECULE
[[[5-(6-amino-7,8-dihydropurin-8-ylium-9-yl)-3,4-dihydroxy-tetrahydrofuran-2-yl]methoxy-hydroxy-phosphoryl]oxy-hydroxy-phosphoryl] hydrogen phosphate
   47    49     1     0     0
SMALL
USER_CHARGES

@<TRIPOS>ATOM
      1 PG         -1.2240    1.5947   -6.2290 P.3       1 ATP         1.5449
      2 O1G        -0.7479    2.4326   -7.3949 O.co2     1 ATP        -0.8177
      3 O2G        -2.6959    1.5020   -5.8931 O.co2     1 ATP        -0.8177
      4 O3G        -0.6347    0.0825   -6.4061 O.3       1 ATP        -0.7779
      5 PB          1.1809    2.1690   -4.5965 P.3       1 ATP         1.9141
      6 O1B         1.9195    3.1364   -5.4737 O.2       1 ATP        -0.8754
      7 O2B         1.2543    2.4931   -3.0144 O.3       1 ATP        -0.8083
      8 O3B        -0.4017    2.0415   -4.8949 O.3       1 ATP        -0.8025
      9 PA          3.0863   -0.0757   -4.4171 P.3       1 ATP         1.8015
     10 O1A         4.2268    0.4190   -5.2587 O.2       1 ATP        -0.8201
     11 O2A         2.7768   -1.6555   -4.5790 O.3       1 ATP        -0.8103
     12 O3A         1.6615    0.6308   -4.7014 O.3       1 ATP        -0.8038
     13 O5'         3.2874    0.1332   -2.8242 O.3       1 ATP        -0.5730
     14 C5'         2.2816   -0.2918   -1.9206 C.3       1 ATP         0.1929
     15 C4'         2.7248    0.0226   -0.4980 C.3       1 ATP         0.1044
     16 O4'         2.4697    1.4219   -0.2462 O.3       1 ATP        -0.4079
     17 C3'         1.9404   -0.7419    0.5596 C.3       1 ATP         0.1439
     18 O3'         2.7418   -0.8086    1.7389 O.3       1 ATP        -0.5593
     19 C2'         0.7477    0.1630    0.7858 C.3       1 ATP         0.0644
     20 O2'         0.1373   -0.0577    2.0407 O.3       1 ATP        -0.5595
     21 C1'         1.3733    1.5427    0.6747 C.3       1 ATP         0.3792
     22 N9          0.4520    2.5240    0.1767 N.pl3     1 ATP        -0.5557
     23 C8         -0.2172    2.5216   -0.9668 C.ar      1 ATP         0.2849
     24 N7         -1.0011    3.5855   -1.1321 N.pl3     1 ATP        -0.5117
     25 C5         -0.8184    4.3200   -0.0123 C.ar      1 ATP        -0.2787
     26 C6         -1.3349    5.5079    0.4144 C.ar      1 ATP         0.7736
     27 N6         -2.2567    6.1930   -0.4036 N.pl3     1 ATP        -0.9480
     28 N1         -0.9716    6.0291    1.6069 N.ar      1 ATP        -0.7442
     29 C2         -0.0765    5.3009    2.3312 C.ar      1 ATP         0.7202
     30 N3          0.4933    4.1191    2.0023 N.ar      1 ATP        -0.6957
     31 C4          0.0865    3.6675    0.8123 C.ar      1 ATP         0.6231
     32 HOG3       -0.8559   -0.5877   -5.7248 H         1 ATP         0.4452
     33 HOB2        2.1308    2.5166   -2.5749 H         1 ATP         0.4969
     34 HOA2        2.5334   -2.0027   -5.4635 H         1 ATP         0.4779
     35 H5'1        1.3494    0.2323   -2.1552 H         1 ATP         0.0280
     36 H5'2        2.1260   -1.3686   -2.0436 H         1 ATP         0.0280
     37 H4'         3.8049   -0.1388   -0.4009 H         1 ATP         0.2049
     38 H3'         1.6783   -1.7629    0.2715 H         1 ATP         0.1077
     39 HO3'        2.2232   -1.2979    2.3953 H         1 ATP         0.4255
     40 H2'        -0.0011    0.0027    0.0003 H         1 ATP         0.0584
     41 HO2'       -0.6141    0.5574    2.1082 H         1 ATP         0.4149
     42 H1'         1.7826    1.9024    1.6451 H         1 ATP         0.1459
     43 H8         -0.1423    1.7373   -1.6999 H         1 ATP         0.2739
     44 HN61       -2.4811    5.8206   -1.3042 H         1 ATP         0.4605
     45 HN62       -2.5986    7.0863   -0.1113 H         1 ATP         0.4605
     46 H2          0.2128    5.7222    3.2871 H         1 ATP         0.0904
     47 H47        -1.5947    3.7835   -1.9255 H         1 ATP         0.5017
@<TRIPOS>BOND
     1    1    2 2
     2    1    3 1
     3    1    4 1
     4    1    8 1
     5    4   32 1
     6    5    6 2
     7    5    7 1
     8    5    8 1
     9    5   12 1
    10    7   33 1
    11    9   10 2
    12    9   11 1
    13    9   12 1
    14    9   13 1
    15   11   34 1
    16   13   14 1
    17   14   15 1
    18   14   35 1
    19   14   36 1
    20   15   16 1
    21   15   17 1
    22   15   37 1
    23   16   21 1
    24   17   18 1
    25   17   19 1
    26   17   38 1
    27   18   39 1
    28   19   20 1
    29   19   21 1
    30   19   40 1
    31   20   41 1
    32   21   22 1
    33   21   42 1
    34   22   23 ar
    35   22   31 ar
    36   23   24 ar
    37   23   43 1
    38   24   25 ar
    39   24   47 1
    40   25   26 ar
    41   25   31 ar
    42   26   27 1
    43   26   28 ar
    44   27   44 1
    45   27   45 1
    46   28   29 ar
    47   29   30 ar
    48   29   46 1
    49   30   31 ar
@<TRIPOS>SUBSTRUCTURE
     1 ATP         1 GROUP 0 A     ****
@<TRIPOS>MOLECULE
[[[5-(6-amino-7,8-dihydropurin-8-ylium-9-yl)-3,4-dihydroxy-tetrahydrofuran-2-yl]methoxy-hydroxy-phosphoryl]oxy-hydroxy-phosphoryl] hydrogen phosphate
   47    49     1     0     0
SMALL
USER_CHARGES

@<TRIPOS>ATOM
      1 PG         -1.3423   -0.5138   -4.6975 P.3       1 ATP         1.5449
      2 O1G        -2.8461   -0.4847   -4.5367 O.co2     1 ATP        -0.8177
      3 O2G        -0.4467   -0.8755   -3.5335 O.co2     1 ATP        -0.8177
      4 O3G        -0.9771   -1.4869   -5.9567 O.3       1 ATP        -0.7779
      5 PB         -0.2715    2.2477   -4.6233 P.3       1 ATP         1.9141
      6 O1B         0.0631    3.3646   -5.5675 O.2       1 ATP        -0.8754
      7 O2B        -1.3729    2.6152   -3.4984 O.3       1 ATP        -0.8083
      8 O3B        -0.8561    0.9121   -5.3190 O.3       1 ATP        -0.8025
      9 PA          2.3569    0.9674   -4.2305 P.3       1 ATP         1.8015
     10 O1A         3.2462    1.8166   -5.0918 O.2       1 ATP        -0.8201
     11 O2A         1.8897   -0.4193   -4.9210 O.3       1 ATP        -0.8103
     12 O3A         0.9709    1.6610   -3.7745 O.3       1 ATP        -0.8038
     13 O5'         3.0190    0.5130   -2.8246 O.3       1 ATP        -0.5730
     14 C5'         2.2816   -0.2918   -1.9206 C.3       1 ATP         0.1929
     15 C4'         2.7248    0.0226   -0.4980 C.3       1 ATP         0.1044
     16 O4'         2.4697    1.4219   -0.2462 O.3       1 ATP        -0.4079
     17 C3'         1.9404   -0.7419    0.5596 C.3       1 ATP         0.1439
     18 O3'         2.7418   -0.8086    1.7389 O.3       1 ATP        -0.5593
     19 C2'         0.7477    0.1630    0.7858 C.3       1 ATP         0.0644
     20 O2'         0.1373   -0.0577    2.0407 O.3       1 ATP        -0.5595
     21 C1'         1.3733    1.5427    0.6747 C.3       1 ATP         0.3792
     22 N9          0.4520    2.5240    0.1767 N.pl3     1 ATP        -0.5557
     23 C8         -0.2172    2.5216   -0.9668 C.ar      1 ATP         0.2849
     24 N7         -1.0011    3.5855   -1.1321 N.pl3     1 ATP        -0.5117
     25 C5         -0.8184    4.3200   -0.0123 C.ar      1 ATP        -0.2787
     26 C6         -1.3349    5.5079    0.4144 C.ar      1 ATP         0.7736
     27 N6         -2.2567    6.1930   -0.4036 N.pl3     1 ATP        -0.9480
     28 N1         -0.9716    6.0291    1.6069 N.ar      1 ATP        -0.7442
     29 C2         -0.0765    5.3009    2.3312 C.ar      1 ATP         0.7202
     30 N3          0.4933    4.1191    2.0023 N.ar      1 ATP        -0.6957
     31 C4          0.0865    3.6675    0.8123 C.ar      1 ATP         0.6231
     32 HOG3       -0.0330   -1.6116   -6.1921 H         1 ATP         0.4452
     33 HOB2       -2.2679    2.8963   -3.7845 H         1 ATP         0.4969
     34 HOA2        1.3778   -0.3837   -5.7569 H         1 ATP         0.4779
     35 H5'1        1.2149   -0.0786   -2.0446 H         1 ATP         0.0280
     36 H5'2        2.4641   -1.3459   -2.1539 H         1 ATP         0.0280
     37 H4'         3.8049   -0.1388   -0.4009 H         1 ATP         0.2049
     38 H3'         1.6783   -1.7629    0.2715 H         1 ATP         0.1077
     39 HO3'        2.2232   -1.2979    2.3953 H         1 ATP         0.4255
     40 H2'        -0.0011    0.0027    0.0003 H         1 ATP         0.0584
     41 HO2'       -0.1563   -0.9855    2.0596 H         1 ATP         0.4149
     42 H1'         1.7826    1.9024    1.6451 H         1 ATP         0.1459
     43 H8         -0.1423    1.7373   -1.6999 H         1 ATP         0.2739
     44 HN61       -2.4811    5.8206   -1.3042 H         1 ATP         0.4605
     45 HN62       -2.5986    7.0863   -0.1113 H         1 ATP         0.4605
     46 H2          0.2128    5.7222    3.2871 H         1 ATP         0.0904
     47 H47        -1.5947    3.7835   -1.9255 H         1 ATP         0.5017
@<TRIPOS>BOND
     1    1    2 2
     2    1    3 1
     3    1    4 1
     4    1    8 1
     5    4   32 1
     6    5    6 2
     7    5    7 1
     8    5    8 1
     9    5   12 1
    10    7   33 1
    11    9   10 2
    12    9   11 1
    13    9   12 1
    14    9   13 1
    15   11   34 1
    16   13   14 1
    17   14   15 1
    18   14   35 1
    19   14   36 1
    20   15   16 1
    21   15   17 1
    22   15   37 1
    23   16   21 1
    24   17   18 1
    25   17   19 1
    26   17   38 1
    27   18   39 1
    28   19   20 1
    29   19   21 1
    30   19   40 1
    31   20   41 1
    32   21   22 1
    33   21   42 1
    34   22   23 ar
    35   22   31 ar
    36   23   24 ar
    37   23   43 1
    38   24   25 ar
    39   24   47 1
    40   25   26 ar
    41   25   31 ar
    42   26   27 1
    43   26   28 ar
    44   27   44 1
    45   27   45 1
    46   28   29 ar
    47   29   30 ar
    48   29   46 1
    49   30   31 ar
@<TRIPOS>SUBSTRUCTURE
     1 ATP         1 GROUP 0 A     ****
@<TRIPOS>MOLECULE
[[[5-(6-amino-7,8-dihydropurin-8-ylium-9-yl)-3,4-dihydroxy-tetrahydrofuran-2-yl]methoxy-hydroxy-phosphoryl]oxy-hydroxy-phosphoryl] hydrogen phosphate
   47    49     1     0     0
SMALL
USER_CHARGES

@<TRIPOS>ATOM
      1 PG         -0.3378    2.8510   -6.5056 P.3       1 ATP         1.5449
      2 O1G        -1.6575    3.5735   -6.3490 O.co2     1 ATP        -0.8177
      3 O2G        -0.2972    1.3903   -6.8963 O.co2     1 ATP        -0.8177
      4 O3G         0.5912    3.6947   -7.5501 O.3       1 ATP        -0.7779
      5 PB          2.0581    2.6662   -4.7725 P.3       1 ATP         1.9141
      6 O1B         3.1116    3.2845   -5.6437 O.2       1 ATP        -0.8754
      7 O2B         2.1784    3.0258   -3.2009 O.3       1 ATP        -0.8083
      8 O3B         0.5375    3.0623   -5.1473 O.3       1 ATP        -0.8025
      9 PA          3.0863   -0.0757   -4.4171 P.3       1 ATP         1.8015
     10 O1A         4.3570   -0.0352   -5.2156 O.2       1 ATP        -0.8201
     11 O2A         2.2680   -1.4661   -4.5396 O.3       1 ATP        -0.8103
     12 O3A         1.9950    1.0527   -4.7988 O.3       1 ATP        -0.8038
     13 O5'         3.2874    0.1332   -2.8242 O.3       1 ATP        -0.5730
     14 C5'         2.2816   -0.2918   -1.9206 C.3       1 ATP         0.1929
     15 C4'         2.7248    0.0226   -0.4980 C.3       1 ATP         0.1044
     16 O4'         2.4697    1.4219   -0.2462 O.3       1 ATP        -0.4079
     17 C3'         1.9404   -0.7419    0.5596 C.3       1 ATP         0.1439
     18 O3'         2.7418   -0.8086    1.7389 O.3       1 ATP        -0.5593
     19 C2'         0.7477    0.1630    0.7858 C.3       1 ATP         0.0644
     20 O2'         0.1373   -0.0577    2.0407 O.3       1 ATP        -0.5595
     21 C1'         1.3733    1.5427    0.6747 C.3       1 ATP         0.3792
     22 N9          0.4520    2.5240    0.1767 N.pl3     1 ATP        -0.5557
     23 C8          0.0623    3.6542    0.7479 C.ar      1 ATP         0.2849
     24 N7         -0.8074    4.3516    0.0193 N.pl3     1 ATP        -0.5117
     25 C5         -0.9855    3.6123   -1.0979 C.ar      1 ATP        -0.2787
     26 C6         -1.7474    3.7860   -2.2156 C.ar      1 ATP         0.7736
     27 N6         -2.5511    4.9389   -2.3303 N.pl3     1 ATP        -0.9480
     28 N1         -1.7375    2.8675   -3.2064 N.ar      1 ATP        -0.7442
     29 C2         -0.9330    1.7853   -3.0121 C.ar      1 ATP         0.7202
     30 N3         -0.1423    1.5179   -1.9478 N.ar      1 ATP        -0.6957
     31 C4         -0.2044    2.4690   -1.0113 C.ar      1 ATP         0.6231
     32 HOG3        1.4867    3.3534   -7.7593 H         1 ATP         0.4452
     33 HOB2        2.9947    2.7758   -2.7180 H         1 ATP         0.4969
     34 HOA2        1.9544   -1.7554   -5.4228 H         1 ATP         0.4779
     35 H5'1        1.3494    0.2323   -2.1552 H         1 ATP         0.0280
     36 H5'2        2.1260   -1.3686   -2.0436 H         1 ATP         0.0280
     37 H4'         3.8049   -0.1388   -0.4009 H         1 ATP         0.2049
     38 H3'         1.6783   -1.7629    0.2715 H         1 ATP         0.1077
     39 HO3'        2.2232   -1.2979    2.3953 H         1 ATP         0.4255
     40 H2'        -0.0011    0.0027    0.0003 H         1 ATP         0.0584
     41 HO2'       -0.6141    0.5574    2.1082 H         1 ATP         0.4149
     42 H1'         1.7826    1.9024    1.6451 H         1 ATP         0.1459
     43 H8          0.4111    3.9873    1.7100 H         1 ATP         0.2739
     44 HN61       -3.0729    5.0887   -3.1702 H         1 ATP         0.4605
     45 HN62       -2.5136    5.6334   -1.6116 H         1 ATP         0.4605
     46 H2         -0.9279    1.0504   -3.8088 H         1 ATP         0.0904
     47 H47        -1.2303    5.2364    0.2633 H         1 ATP         0.5017
@<TRIPOS>BOND
     1    1    2 2
     2    1    3 1
     3    1    4 1
     4    1    8 1
     5    4   32 1
     6    5    6 2
     7    5    7 1
     8    5    8 1
     9    5   12 1
    10    7   33 1
    11    9   10 2
    12    9   11 1
    13    9   12 1
    14    9   13 1
    15   11   34 1
    16   13   14 1
    17   14   15 1
    18   14   35 1
    19   14   36 1
    20   15   16 1
    21   15   17 1
    22   15   37 1
    23   16   21 1
    24   17   18 1
    25   17   19 1
    26   17   38 1
    27   18   39 1
    28   19   20 1
    29   19   21 1
    30   19   40 1
    31   20   41 1
    32   21   22 1
    33   21   42 1
    34   22   23 ar
    35   22   31 ar
    36   23   24 ar
    37   23   43 1
    38   24   25 ar
    39   24   47 1
    40   25   26 ar
    41   25   31 ar
    42   26   27 1
    43   26   28 ar
    44   27   44 1
    45   27   45 1
    46   28   29 ar
    47   29   30 ar
    48   29   46 1
    49   30   31 ar
@<TRIPOS>SUBSTRUCTURE
     1 ATP         1 GROUP 0 A     ****
@<TRIPOS>MOLECULE
[[[5-(6-amino-7,8-dihydropurin-8-ylium-9-yl)-3,4-dihydroxy-tetrahydrofuran-2-yl]methoxy-hydroxy-phosphoryl]oxy-hydroxy-phosphoryl] hydrogen phosphate
   47    49     1     0     0
SMALL
USER_CHARGES

@<TRIPOS>ATOM
      1 PG         -0.8405   -0.3301   -7.4519 P.3       1 ATP         1.5449
      2 O1G        -0.1959   -0.4606   -8.8141 O.co2     1 ATP        -0.8177
      3 O2G        -2.0356    0.5736   -7.2449 O.co2     1 ATP        -0.8177
      4 O3G        -1.2196   -1.8249   -6.9155 O.3       1 ATP        -0.7779
      5 PB          1.2171    1.3780   -6.1762 P.3       1 ATP         1.9141
      6 O1B         2.0923    1.7232   -7.3449 O.2       1 ATP        -0.8754
      7 O2B         0.1533    2.5226   -5.7618 O.3       1 ATP        -0.8083
      8 O3B         0.3108    0.0539   -6.3643 O.3       1 ATP        -0.8025
      9 PA          3.0863   -0.0757   -4.4171 P.3       1 ATP         1.8015
     10 O1A         4.3570   -0.0352   -5.2156 O.2       1 ATP        -0.8201
     11 O2A         2.2680   -1.4661   -4.5396 O.3       1 ATP        -0.8103
     12 O3A         1.9950    1.0527   -4.7988 O.3       1 ATP        -0.8038
     13 O5'         3.2874    0.1332   -2.8242 O.3       1 ATP        -0.5730
     14 C5'         2.2816   -0.2918   -1.9206 C.3       1 ATP         0.1929
     15 C4'         2.7248    0.0226   -0.4980 C.3       1 ATP         0.1044
     16 O4'         2.4697    1.4219   -0.2462 O.3       1 ATP        -0.4079
     17 C3'         1.9404   -0.7419    0.5596 C.3       1 ATP         0.1439
     18 O3'         2.7418   -0.8086    1.7389 O.3       1 ATP        -0.5593
     19 C2'         0.7477    0.1630    0.7858 C.3       1 ATP         0.0644
     20 O2'         0.1373   -0.0577    2.0407 O.3       1 ATP        -0.5595
     21 C1'         1.3733    1.5427    0.6747 C.3       1 ATP         0.3792
     22 N9          0.4520    2.5240    0.1767 N.pl3     1 ATP        -0.5557
     23 C8          0.0623    3.6542    0.7479 C.ar      1 ATP         0.2849
     24 N7         -0.8074    4.3516    0.0193 N.pl3     1 ATP        -0.5117
     25 C5         -0.9855    3.6123   -1.0979 C.ar      1 ATP        -0.2787
     26 C6         -1.7474    3.7860   -2.2156 C.ar      1 ATP         0.7736
     27 N6         -2.5511    4.9389   -2.3303 N.pl3     1 ATP        -0.9480
     28 N1         -1.7375    2.8675   -3.2064 N.ar      1 ATP        -0.7442
     29 C2         -0.9330    1.7853   -3.0121 C.ar      1 ATP         0.7202
     30 N3         -0.1423    1.5179   -1.9478 N.ar      1 ATP        -0.6957
     31 C4         -0.2044    2.4690   -1.0113 C.ar      1 ATP         0.6231
     32 HOG3       -1.6488   -1.9111   -6.0377 H         1 ATP         0.4452
     33 HOB2       -0.5142    2.8110   -6.4202 H         1 ATP         0.4969
     34 HOA2        1.9544   -1.7554   -5.4228 H         1 ATP         0.4779
     35 H5'1        1.3494    0.2323   -2.1552 H         1 ATP         0.0280
     36 H5'2        2.1260   -1.3686   -2.0436 H         1 ATP         0.0280
     37 H4'         3.8049   -0.1388   -0.4009 H         1 ATP         0.2049
     38 H3'         1.6783   -1.7629    0.2715 H         1 ATP         0.1077
     39 HO3'        2.2232   -1.2979    2.3953 H         1 ATP         0.4255
     40 H2'        -0.0011    0.0027    0.0003 H         1 ATP         0.0584
     41 HO2'       -0.6141    0.5574    2.1082 H         1 ATP         0.4149
     42 H1'         1.7826    1.9024    1.6451 H         1 ATP         0.1459
     43 H8          0.4111    3.9873    1.7100 H         1 ATP         0.2739
     44 HN61       -2.5859    5.5874   -1.5698 H         1 ATP         0.4605
     45 HN62       -3.1449    5.0423   -3.1284 H         1 ATP         0.4605
     46 H2         -0.9279    1.0504   -3.8088 H         1 ATP         0.0904
     47 H47        -1.2303    5.2364    0.2633 H         1 ATP         0.5017
@<TRIPOS>BOND
     1    1    2 2
     2    1    3 1
     3    1    4 1
     4    1    8 1
     5    4   32 1
     6    5    6 2
     7    5    7 1
     8    5    8 1
     9    5   12 1
    10    7   33 1
    11    9   10 2
    12    9   11 1
    13    9   12 1
    14    9   13 1
    15   11   34 1
    16   13   14 1
    17   14   15 1
    18   14   35 1
    19   14   36 1
    20   15   16 1
    21   15   17 1
    22   15   37 1
    23   16   21 1
    24   17   18 1
    25   17   19 1
    26   17   38 1
    27   18   39 1
    28   19   20 1
    29   19   21 1
    30   19   40 1
    31   20   41 1
    32   21   22 1
    33   21   42 1
    34   22   23 ar
    35   22   31 ar
    36   23   24 ar
    37   23   43 1
    38   24   25 ar
    39   24   47 1
    40   25   26 ar
    41   25   31 ar
    42   26   27 1
    43   26   28 ar
    44   27   44 1
    45   27   45 1
    46   28   29 ar
    47   29   30 ar
    48   29   46 1
    49   30   31 ar
@<TRIPOS>SUBSTRUCTURE
     1 ATP         1 GROUP 0 A     ****
@<TRIPOS>MOLECULE
[[[5-(6-amino-7,8-dihydropurin-8-ylium-9-yl)-3,4-dihydroxy-tetrahydrofuran-2-yl]methoxy-hydroxy-phosphoryl]oxy-hydroxy-phosphoryl] hydrogen phosphate
   47    49     1     0     0
SMALL
USER_CHARGES

@<TRIPOS>ATOM
      1 PG         -1.3459   -0.1384   -4.6975 P.3       1 ATP         1.5449
      2 O1G        -0.5978    0.0390   -3.3949 O.co2     1 ATP        -0.8177
      3 O2G        -2.8488   -0.3092   -4.7094 O.co2     1 ATP        -0.8177
      4 O3G        -0.9551    1.0982   -5.6893 O.3       1 ATP        -0.7779
      5 PB          0.8617   -1.6483   -5.9723 P.3       1 ATP         1.9141
      6 O1B         1.0766   -2.9184   -6.7415 O.2       1 ATP        -0.8754
      7 O2B         1.2977   -0.3000   -6.7505 O.3       1 ATP        -0.8083
      8 O3B        -0.6652   -1.3647   -5.5275 O.3       1 ATP        -0.8025
      9 PA          1.5750   -2.4636   -3.2285 P.3       1 ATP         1.8015
     10 O1A         1.9420   -3.9067   -3.4205 O.2       1 ATP        -0.8201
     11 O2A         0.0757   -2.2276   -2.6680 O.3       1 ATP        -0.8103
     12 O3A         1.6402   -1.5518   -4.5606 O.3       1 ATP        -0.8038
     13 O5'         2.5233   -1.6623   -2.1893 O.3       1 ATP        -0.5730
     14 C5'         2.2816   -0.2918   -1.9206 C.3       1 ATP         0.1929
     15 C4'         2.7248    0.0226   -0.4980 C.3       1 ATP         0.1044
     16 O4'         2.4697    1.4219   -0.2462 O.3       1 ATP        -0.4079
     17 C3'         1.9404   -0.7419    0.5596 C.3       1 ATP         0.1439
     18 O3'         2.7418   -0.8086    1.7389 O.3       1 ATP        -0.5593
     19 C2'         0.7477    0.1630    0.7858 C.3       1 ATP         0.0644
     20 O2'         0.1373   -0.0577    2.0407 O.3       1 ATP        -0.5595
     21 C1'         1.3733    1.5427    0.6747 C.3       1 ATP         0.3792
     22 N9          0.4520    2.5240    0.1767 N.pl3     1 ATP        -0.5557
     23 C8         -0.3477    3.3274    0.8626 C.ar      1 ATP         0.2849
     24 N7         -1.0836    4.1323    0.0983 N.pl3     1 ATP        -0.5117
     25 C5         -0.7273    3.8194   -1.1674 C.ar      1 ATP        -0.2787
     26 C6         -1.1208    4.2877   -2.3863 C.ar      1 ATP         0.7736
     27 N6         -2.0932    5.3066   -2.4528 N.pl3     1 ATP        -0.9480
     28 N1         -0.5892    3.7853   -3.5223 N.ar      1 ATP        -0.7442
     29 C2          0.3427    2.8040   -3.3648 C.ar      1 ATP         0.7202
     30 N3          0.8012    2.2709   -2.2093 N.ar      1 ATP        -0.6957
     31 C4          0.2307    2.8167   -1.1312 C.ar      1 ATP         0.6231
     32 HOG3       -1.3617    1.1278   -6.5815 H         1 ATP         0.4452
     33 HOB2        0.8630   -0.0819   -7.6022 H         1 ATP         0.4969
     34 HOA2       -0.6842   -2.5554   -3.1944 H         1 ATP         0.4779
     35 H5'1        2.8428    0.3149   -2.6387 H         1 ATP         0.0280
     36 H5'2        1.2124   -0.0897   -2.0417 H         1 ATP         0.0280
     37 H4'         3.8049   -0.1388   -0.4009 H         1 ATP         0.2049
     38 H3'         1.6783   -1.7629    0.2715 H         1 ATP         0.1077
     39 HO3'        2.2232   -1.2979    2.3953 H         1 ATP         0.4255
     40 H2'        -0.0011    0.0027    0.0003 H         1 ATP         0.0584
     41 HO2'       -0.6141    0.5574    2.1082 H         1 ATP         0.4149
     42 H1'         1.7826    1.9024    1.6451 H         1 ATP         0.1459
     43 H8         -0.4040    3.3373    1.9373 H         1 ATP         0.2739
     44 HN61       -2.5133    5.6366   -1.6073 H         1 ATP         0.4605
     45 HN62       -2.4153    5.6161   -3.3477 H         1 ATP         0.4605
     46 H2          0.7668    2.4032   -4.2782 H         1 ATP         0.0904
     47 H47        -1.7549    4.8194    0.4122 H         1 ATP         0.5017
@<TRIPOS>BOND
     1    1    2 2
     2    1    3 1
     3    1    4 1
     4    1    8 1
     5    4   32 1
     6    5    6 2
     7    5    7 1
     8    5    8 1
     9    5   12 1
    10    7   33 1
    11    9   10 2
    12    9   11 1
    13    9   12 1
    14    9   13 1
    15   11   34 1
    16   13   14 1
    17   14   15 1
    18   14   35 1
    19   14   36 1
    20   15   16 1
    21   15   17 1
    22   15   37 1
    23   16   21 1
    24   17   18 1
    25   17   19 1
    26   17   38 1
    27   18   39 1
    28   19   20 1
    29   19   21 1
    30   19   40 1
    31   20   41 1
    32   21   22 1
    33   21   42 1
    34   22   23 ar
    35   22   31 ar
    36   23   24 ar
    37   23   43 1
    38   24   25 ar
    39   24   47 1
    40   25   26 ar
    41   25   31 ar
    42   26   27 1
    43   26   28 ar
    44   27   44 1
    45   27   45 1
    46   28   29 ar
    47   29   30 ar
    48   29   46 1
    49   30   31 ar
@<TRIPOS>SUBSTRUCTURE
     1 ATP         1 GROUP 0 A     ****
@<TRIPOS>MOLECULE
[[[5-(6-amino-7,8-dihydropurin-8-ylium-9-yl)-3,4-dihydroxy-tetrahydrofuran-2-yl]methoxy-hydroxy-phosphoryl]oxy-hydroxy-phosphoryl] hydrogen phosphate
   47    49     1     0     0
SMALL
USER_CHARGES

@<TRIPOS>ATOM
      1 PG          1.0149   -4.1866   -6.6771 P.3       1 ATP         1.5449
      2 O1G         1.8409   -5.3716   -6.2281 O.co2     1 ATP        -0.8177
      3 O2G         0.8731   -3.8546   -8.1460 O.co2     1 ATP        -0.8177
      4 O3G        -0.4771   -4.3223   -6.0282 O.3       1 ATP        -0.7779
      5 PB          1.4227   -1.2867   -6.2270 P.3       1 ATP         1.9141
      6 O1B         2.0838   -0.8705   -7.5079 O.2       1 ATP        -0.8754
      7 O2B        -0.1615   -0.9746   -6.1468 O.3       1 ATP        -0.8083
      8 O3B         1.5275   -2.8609   -5.8798 O.3       1 ATP        -0.8025
      9 PA          3.4957   -0.6445   -4.2289 P.3       1 ATP         1.8015
     10 O1A         4.5940   -0.0911   -5.0900 O.2       1 ATP        -0.8201
     11 O2A         3.6994   -2.1925   -3.8046 O.3       1 ATP        -0.8103
     12 O3A         2.0205   -0.6125   -4.8867 O.3       1 ATP        -0.8038
     13 O5'         3.2874    0.1332   -2.8242 O.3       1 ATP        -0.5730
     14 C5'         2.2816   -0.2918   -1.9206 C.3       1 ATP         0.1929
     15 C4'         2.7248    0.0226   -0.4980 C.3       1 ATP         0.1044
     16 O4'         2.4697    1.4219   -0.2462 O.3       1 ATP        -0.4079
     17 C3'         1.9404   -0.7419    0.5596 C.3       1 ATP         0.1439
     18 O3'         2.7418   -0.8086    1.7389 O.3       1 ATP        -0.5593
     19 C2'         0.7477    0.1630    0.7858 C.3       1 ATP         0.0644
     20 O2'         0.1373   -0.0577    2.0407 O.3       1 ATP        -0.5595
     21 C1'         1.3733    1.5427    0.6747 C.3       1 ATP         0.3792
     22 N9          0.4520    2.5240    0.1767 N.pl3     1 ATP        -0.5557
     23 C8          0.0623    3.6542    0.7479 C.ar      1 ATP         0.2849
     24 N7         -0.8074    4.3516    0.0193 N.pl3     1 ATP        -0.5117
     25 C5         -0.9855    3.6123   -1.0979 C.ar      1 ATP        -0.2787
     26 C6         -1.7474    3.7860   -2.2156 C.ar      1 ATP         0.7736
     27 N6         -2.5511    4.9389   -2.3303 N.pl3     1 ATP        -0.9480
     28 N1         -1.7375    2.8675   -3.2064 N.ar      1 ATP        -0.7442
     29 C2         -0.9330    1.7853   -3.0121 C.ar      1 ATP         0.7202
     30 N3         -0.1423    1.5179   -1.9478 N.ar      1 ATP        -0.6957
     31 C4         -0.2044    2.4690   -1.0113 C.ar      1 ATP         0.6231
     32 HOG3       -1.1378   -3.6250   -6.2266 H         1 ATP         0.4452
     33 HOB2       -0.7594   -1.3810   -6.8097 H         1 ATP         0.4969
     34 HOA2        3.7592   -2.8731   -4.5084 H         1 ATP         0.4779
     35 H5'1        1.3494    0.2323   -2.1552 H         1 ATP         0.0280
     36 H5'2        2.1260   -1.3686   -2.0436 H         1 ATP         0.0280
     37 H4'         3.8049   -0.1388   -0.4009 H         1 ATP         0.2049
     38 H3'         1.6783   -1.7629    0.2715 H         1 ATP         0.1077
     39 HO3'        2.2232   -1.2979    2.3953 H         1 ATP         0.4255
     40 H2'        -0.0011    0.0027    0.0003 H         1 ATP         0.0584
     41 HO2'       -0.6141    0.5574    2.1082 H         1 ATP         0.4149
     42 H1'         1.7826    1.9024    1.6451 H         1 ATP         0.1459
     43 H8          0.4111    3.9873    1.7100 H         1 ATP         0.2739
     44 HN61       -2.5859    5.5874   -1.5698 H         1 ATP         0.4605
     45 HN62       -3.1449    5.0423   -3.1284 H         1 ATP         0.4605
     46 H2         -0.9279    1.0504   -3.8088 H         1 ATP         0.0904
     47 H47        -1.2303    5.2364    0.2633 H         1 ATP         0.5017
@<TRIPOS>BOND
     1    1    2 2
     2    1    3 1
     3    1    4 1
     4    1    8 1
     5    4   32 1
     6    5    6 2
     7    5    7 1
     8    5    8 1
     9    5   12 1
    10    7   33 1
    11    9   10 2
    12    9   11 1
    13    9   12 1
    14    9   13 1
    15   11   34 1
    16   13   14 1
    17   14   15 1
    18   14   35 1
    19   14   36 1
    20   15   16 1
    21   15   17 1
    22   15   37 1
    23   16   21 1
    24   17   18 1
    25   17   19 1
    26   17   38 1
    27   18   39 1
    28   19   20 1
    29   19   21 1
    30   19   40 1
    31   20   41 1
    32   21   22 1
    33   21   42 1
    34   22   23 ar
    35   22   31 ar
    36   23   24 ar
    37   23   43 1
    38   24   25 ar
    39   24   47 1
    40   25   26 ar
    41   25   31 ar
    42   26   27 1
    43   26   28 ar
    44   27   44 1
    45   27   45 1
    46   28   29 ar
    47   29   30 ar
    48   29   46 1
    49   30   31 ar
@<TRIPOS>SUBSTRUCTURE
     1 ATP         1 GROUP 0 A     ****
@<TRIPOS>MOLECULE
[[[5-(6-amino-7,8-dihydropurin-8-ylium-9-yl)-3,4-dihydroxy-tetrahydrofuran-2-yl]methoxy-hydroxy-phosphoryl]oxy-hydroxy-phosphoryl] hydrogen phosphate
   47    49     1     0     0
SMALL
USER_CHARGES

@<TRIPOS>ATOM
      1 PG          6.2959   -3.3208   -5.3978 P.3       1 ATP         1.5449
      2 O1G         6.8170   -4.7209   -5.1607 O.co2     1 ATP        -0.8177
      3 O2G         6.9513   -2.4134   -6.4151 O.co2     1 ATP        -0.8177
      4 O3G         4.7012   -3.4143   -5.7353 O.3       1 ATP        -0.7779
      5 PB          5.6129   -1.1034   -3.5552 P.3       1 ATP         1.9141
      6 O1B         5.7387   -0.7509   -2.1023 O.2       1 ATP        -0.8754
      7 O2B         6.3370   -0.0739   -4.5698 O.3       1 ATP        -0.8083
      8 O3B         6.2155   -2.5446   -3.9671 O.3       1 ATP        -0.8025
      9 PA          2.8569   -2.1455   -3.6982 P.3       1 ATP         1.8015
     10 O1A         3.0916   -3.6213   -3.8417 O.2       1 ATP        -0.8201
     11 O2A         1.6263   -1.5787   -4.5826 O.3       1 ATP        -0.8103
     12 O3A         4.1019   -1.2047   -4.1164 O.3       1 ATP        -0.8038
     13 O5'         2.5233   -1.6623   -2.1893 O.3       1 ATP        -0.5730
     14 C5'         2.2816   -0.2918   -1.9206 C.3       1 ATP         0.1929
     15 C4'         2.7248    0.0226   -0.4980 C.3       1 ATP         0.1044
     16 O4'         2.4697    1.4219   -0.2462 O.3       1 ATP        -0.4079
     17 C3'         1.9404   -0.7419    0.5596 C.3       1 ATP         0.1439
     18 O3'         2.7418   -0.8086    1.7389 O.3       1 ATP        -0.5593
     19 C2'         0.7477    0.1630    0.7858 C.3       1 ATP         0.0644
     20 O2'         0.1373   -0.0577    2.0407 O.3       1 ATP        -0.5595
     21 C1'         1.3733    1.5427    0.6747 C.3       1 ATP         0.3792
     22 N9          0.4520    2.5240    0.1767 N.pl3     1 ATP        -0.5557
     23 C8          0.0623    3.6542    0.7479 C.ar      1 ATP         0.2849
     24 N7         -0.8074    4.3516    0.0193 N.pl3     1 ATP        -0.5117
     25 C5         -0.9855    3.6123   -1.0979 C.ar      1 ATP        -0.2787
     26 C6         -1.7474    3.7860   -2.2156 C.ar      1 ATP         0.7736
     27 N6         -2.5511    4.9389   -2.3303 N.pl3     1 ATP        -0.9480
     28 N1         -1.7375    2.8675   -3.2064 N.ar      1 ATP        -0.7442
     29 C2         -0.9330    1.7853   -3.0121 C.ar      1 ATP         0.7202
     30 N3         -0.1423    1.5179   -1.9478 N.ar      1 ATP        -0.6957
     31 C4         -0.2044    2.4690   -1.0113 C.ar      1 ATP         0.6231
     32 HOG3        4.2123   -2.5831   -5.9149 H         1 ATP         0.4452
     33 HOB2        7.3045    0.0677   -4.4919 H         1 ATP         0.4969
     34 HOA2        0.7265   -1.9369   -4.4273 H         1 ATP         0.4779
     35 H5'1        2.8428    0.3149   -2.6387 H         1 ATP         0.0280
     36 H5'2        1.2124   -0.0897   -2.0417 H         1 ATP         0.0280
     37 H4'         3.8049   -0.1388   -0.4009 H         1 ATP         0.2049
     38 H3'         1.6783   -1.7629    0.2715 H         1 ATP         0.1077
     39 HO3'        2.2232   -1.2979    2.3953 H         1 ATP         0.4255
     40 H2'        -0.0011    0.0027    0.0003 H         1 ATP         0.0584
     41 HO2'       -0.6141    0.5574    2.1082 H         1 ATP         0.4149
     42 H1'         1.7826    1.9024    1.6451 H         1 ATP         0.1459
     43 H8          0.4111    3.9873    1.7100 H         1 ATP         0.2739
     44 HN61       -3.0729    5.0887   -3.1702 H         1 ATP         0.4605
     45 HN62       -2.5136    5.6334   -1.6116 H         1 ATP         0.4605
     46 H2         -0.9279    1.0504   -3.8088 H         1 ATP         0.0904
     47 H47        -1.2303    5.2364    0.2633 H         1 ATP         0.5017
@<TRIPOS>BOND
     1    1    2 2
     2    1    3 1
     3    1    4 1
     4    1    8 1
     5    4   32 1
     6    5    6 2
     7    5    7 1
     8    5    8 1
     9    5   12 1
    10    7   33 1
    11    9   10 2
    12    9   11 1
    13    9   12 1
    14    9   13 1
    15   11   34 1
    16   13   14 1
    17   14   15 1
    18   14   35 1
    19   14   36 1
    20   15   16 1
    21   15   17 1
    22   15   37 1
    23   16   21 1
    24   17   18 1
    25   17   19 1
    26   17   38 1
    27   18   39 1
    28   19   20 1
    29   19   21 1
    30   19   40 1
    31   20   41 1
    32   21   22 1
    33   21   42 1
    34   22   23 ar
    35   22   31 ar
    36   23   24 ar
    37   23   43 1
    38   24   25 ar
    39   24   47 1
    40   25   26 ar
    41   25   31 ar
    42   26   27 1
    43   26   28 ar
    44   27   44 1
    45   27   45 1
    46   28   29 ar
    47   29   30 ar
    48   29   46 1
    49   30   31 ar
@<TRIPOS>SUBSTRUCTURE
     1 ATP         1 GROUP 0 A     ****
@<TRIPOS>MOLECULE
[[[5-(6-amino-7,8-dihydropurin-8-ylium-9-yl)-3,4-dihydroxy-tetrahydrofuran-2-yl]methoxy-hydroxy-phosphoryl]oxy-hydroxy-phosphoryl] hydrogen phosphate
   47    49     1     0     0
SMALL
USER_CHARGES

@<TRIPOS>ATOM
      1 PG          3.2782    2.5219   -7.4686 P.3       1 ATP         1.5449
      2 O1G         4.6227    2.9606   -8.0052 O.co2     1 ATP        -0.8177
      3 O2G         1.9995    2.9005   -8.1824 O.co2     1 ATP        -0.8177
      4 O3G         3.3046    0.9012   -7.2735 O.3       1 ATP        -0.7779
      5 PB          2.0581    2.6662   -4.7725 P.3       1 ATP         1.9141
      6 O1B         2.3317    3.2788   -3.4306 O.2       1 ATP        -0.8754
      7 O2B         0.6661    3.1218   -5.4569 O.3       1 ATP        -0.8083
      8 O3B         3.1677    2.9718   -5.9062 O.3       1 ATP        -0.8025
      9 PA          3.0863   -0.0757   -4.4171 P.3       1 ATP         1.8015
     10 O1A         4.3570   -0.0352   -5.2156 O.2       1 ATP        -0.8201
     11 O2A         2.2680   -1.4661   -4.5396 O.3       1 ATP        -0.8103
     12 O3A         1.9950    1.0527   -4.7988 O.3       1 ATP        -0.8038
     13 O5'         3.2874    0.1332   -2.8242 O.3       1 ATP        -0.5730
     14 C5'         2.2816   -0.2918   -1.9206 C.3       1 ATP         0.1929
     15 C4'         2.7248    0.0226   -0.4980 C.3       1 ATP         0.1044
     16 O4'         2.4697    1.4219   -0.2462 O.3       1 ATP        -0.4079
     17 C3'         1.9404   -0.7419    0.5596 C.3       1 ATP         0.1439
     18 O3'         2.7418   -0.8086    1.7389 O.3       1 ATP        -0.5593
     19 C2'         0.7477    0.1630    0.7858 C.3       1 ATP         0.0644
     20 O2'         0.1373   -0.0577    2.0407 O.3       1 ATP        -0.5595
     21 C1'         1.3733    1.5427    0.6747 C.3       1 ATP         0.3792
     22 N9          0.4520    2.5240    0.1767 N.pl3     1 ATP        -0.5557
     23 C8          0.0623    3.6542    0.7479 C.ar      1 ATP         0.2849
     24 N7         -0.8074    4.3516    0.0193 N.pl3     1 ATP        -0.5117
     25 C5         -0.9855    3.6123   -1.0979 C.ar      1 ATP        -0.2787
     26 C6         -1.7474    3.7860   -2.2156 C.ar      1 ATP         0.7736
     27 N6         -2.5511    4.9389   -2.3303 N.pl3     1 ATP        -0.9480
     28 N1         -1.7375    2.8675   -3.2064 N.ar      1 ATP        -0.7442
     29 C2         -0.9330    1.7853   -3.0121 C.ar      1 ATP         0.7202
     30 N3         -0.1423    1.5179   -1.9478 N.ar      1 ATP        -0.6957
     31 C4         -0.2044    2.4690   -1.0113 C.ar      1 ATP         0.6231
     32 HOG3        2.4995    0.4590   -6.9295 H         1 ATP         0.4452
     33 HOB2        0.5205    4.0725   -5.6491 H         1 ATP         0.4969
     34 HOA2        1.9544   -1.7554   -5.4228 H         1 ATP         0.4779
     35 H5'1        1.3494    0.2323   -2.1552 H         1 ATP         0.0280
     36 H5'2        2.1260   -1.3686   -2.0436 H         1 ATP         0.0280
     37 H4'         3.8049   -0.1388   -0.4009 H         1 ATP         0.2049
     38 H3'         1.6783   -1.7629    0.2715 H         1 ATP         0.1077
     39 HO3'        2.2232   -1.2979    2.3953 H         1 ATP         0.4255
     40 H2'        -0.0011    0.0027    0.0003 H         1 ATP         0.0584
     41 HO2'       -0.6141    0.5574    2.1082 H         1 ATP         0.4149
     42 H1'         1.7826    1.9024    1.6451 H         1 ATP         0.1459
     43 H8          0.4111    3.9873    1.7100 H         1 ATP         0.2739
     44 HN61       -3.0729    5.0887   -3.1702 H         1 ATP         0.4605
     45 HN62       -2.5136    5.6334   -1.6116 H         1 ATP         0.4605
     46 H2         -0.9279    1.0504   -3.8088 H         1 ATP         0.0904
     47 H47        -1.2303    5.2364    0.2633 H         1 ATP         0.5017
@<TRIPOS>BOND
     1    1    2 2
     2    1    3 1
     3    1    4 1
     4    1    8 1
     5    4   32 1
     6    5    6 2
     7    5    7 1
     8    5    8 1
     9    5   12 1
    10    7   33 1
    11    9   10 2
    12    9   11 1
    13    9   12 1
    14    9   13 1
    15   11   34 1
    16   13   14 1
    17   14   15 1
    18   14   35 1
    19   14   36 1
    20   15   16 1
    21   15   17 1
    22   15   37 1
    23   16   21 1
    24   17   18 1
    25   17   19 1
    26   17   38 1
    27   18   39 1
    28   19   20 1
    29   19   21 1
    30   19   40 1
    31   20   41 1
    32   21   22 1
    33   21   42 1
    34   22   23 ar
    35   22   31 ar
    36   23   24 ar
    37   23   43 1
    38   24   25 ar
    39   24   47 1
    40   25   26 ar
    41   25   31 ar
    42   26   27 1
    43   26   28 ar
    44   27   44 1
    45   27   45 1
    46   28   29 ar
    47   29   30 ar
    48   29   46 1
    49   30   31 ar
@<TRIPOS>SUBSTRUCTURE
     1 ATP         1 GROUP 0 A     ****
@<TRIPOS>MOLECULE
[[[5-(6-amino-7,8-dihydropurin-8-ylium-9-yl)-3,4-dihydroxy-tetrahydrofuran-2-yl]methoxy-hydroxy-phosphoryl]oxy-hydroxy-phosphoryl] hydrogen phosphate
   47    49     1     0     0
SMALL
USER_CHARGES

@<TRIPOS>ATOM
      1 PG          0.9700   -3.7367   -4.6236 P.3       1 ATP         1.5449
      2 O1G        -0.3423   -4.3747   -5.0223 O.co2     1 ATP        -0.8177
      3 O2G         1.0766   -2.9110   -3.3608 O.co2     1 ATP        -0.8177
      4 O3G         2.1170   -4.8980   -4.5840 O.3       1 ATP        -0.7779
      5 PB          1.4227   -1.2867   -6.2270 P.3       1 ATP         1.9141
      6 O1B         2.0838   -0.8705   -7.5079 O.2       1 ATP        -0.8754
      7 O2B        -0.1615   -0.9746   -6.1468 O.3       1 ATP        -0.8083
      8 O3B         1.5275   -2.8609   -5.8798 O.3       1 ATP        -0.8025
      9 PA          3.4957   -0.6445   -4.2289 P.3       1 ATP         1.8015
     10 O1A         4.5940   -0.0911   -5.0900 O.2       1 ATP        -0.8201
     11 O2A         3.6994   -2.1925   -3.8046 O.3       1 ATP        -0.8103
     12 O3A         2.0205   -0.6125   -4.8867 O.3       1 ATP        -0.8038
     13 O5'         3.2874    0.1332   -2.8242 O.3       1 ATP        -0.5730
     14 C5'         2.2816   -0.2918   -1.9206 C.3       1 ATP         0.1929
     15 C4'         2.7248    0.0226   -0.4980 C.3       1 ATP         0.1044
     16 O4'         2.4697    1.4219   -0.2462 O.3       1 ATP        -0.4079
     17 C3'         1.9404   -0.7419    0.5596 C.3       1 ATP         0.1439
     18 O3'         2.7418   -0.8086    1.7389 O.3       1 ATP        -0.5593
     19 C2'         0.7477    0.1630    0.7858 C.3       1 ATP         0.0644
     20 O2'         0.1373   -0.0577    2.0407 O.3       1 ATP        -0.5595
     21 C1'         1.3733    1.5427    0.6747 C.3       1 ATP         0.3792
     22 N9          0.4520    2.5240    0.1767 N.pl3     1 ATP        -0.5557
     23 C8          0.0623    3.6542    0.7479 C.ar      1 ATP         0.2849
     24 N7         -0.8074    4.3516    0.0193 N.pl3     1 ATP        -0.5117
     25 C5         -0.9855    3.6123   -1.0979 C.ar      1 ATP        -0.2787
     26 C6         -1.7474    3.7860   -2.2156 C.ar      1 ATP         0.7736
     27 N6         -2.5511    4.9389   -2.3303 N.pl3     1 ATP        -0.9480
     28 N1         -1.7375    2.8675   -3.2064 N.ar      1 ATP        -0.7442
     29 C2         -0.9330    1.7853   -3.0121 C.ar      1 ATP         0.7202
     30 N3         -0.1423    1.5179   -1.9478 N.ar      1 ATP        -0.6957
     31 C4         -0.2044    2.4690   -1.0113 C.ar      1 ATP         0.6231
     32 HOG3        3.0321   -4.6424   -4.3400 H         1 ATP         0.4452
     33 HOB2       -0.7594   -1.3810   -6.8097 H         1 ATP         0.4969
     34 HOA2        4.4967   -2.4422   -3.2908 H         1 ATP         0.4779
     35 H5'1        1.3494    0.2323   -2.1552 H         1 ATP         0.0280
     36 H5'2        2.1260   -1.3686   -2.0436 H         1 ATP         0.0280
     37 H4'         3.8049   -0.1388   -0.4009 H         1 ATP         0.2049
     38 H3'         1.6783   -1.7629    0.2715 H         1 ATP         0.1077
     39 HO3'        3.5554   -1.2733    1.4914 H         1 ATP         0.4255
     40 H2'        -0.0011    0.0027    0.0003 H         1 ATP         0.0584
     41 HO2'       -0.6141    0.5574    2.1082 H         1 ATP         0.4149
     42 H1'         1.7826    1.9024    1.6451 H         1 ATP         0.1459
     43 H8          0.4111    3.9873    1.7100 H         1 ATP         0.2739
     44 HN61       -2.5859    5.5874   -1.5698 H         1 ATP         0.4605
     45 HN62       -3.1449    5.0423   -3.1284 H         1 ATP         0.4605
     46 H2         -0.9279    1.0504   -3.8088 H         1 ATP         0.0904
     47 H47        -1.2303    5.2364    0.2633 H         1 ATP         0.5017
@<TRIPOS>BOND
     1    1    2 2
     2    1    3 1
     3    1    4 1
     4    1    8 1
     5    4   32 1
     6    5    6 2
     7    5    7 1
     8    5    8 1
     9    5   12 1
    10    7   33 1
    11    9   10 2
    12    9   11 1
    13    9   12 1
    14    9   13 1
    15   11   34 1
    16   13   14 1
    17   14   15 1
    18   14   35 1
    19   14   36 1
    20   15   16 1
    21   15   17 1
    22   15   37 1
    23   16   21 1
    24   17   18 1
    25   17   19 1
    26   17   38 1
    27   18   39 1
    28   19   20 1
    29   19   21 1
    30   19   40 1
    31   20   41 1
    32   21   22 1
    33   21   42 1
    34   22   23 ar
    35   22   31 ar
    36   23   24 ar
    37   23   43 1
    38   24   25 ar
    39   24   47 1
    40   25   26 ar
    41   25   31 ar
    42   26   27 1
    43   26   28 ar
    44   27   44 1
    45   27   45 1
    46   28   29 ar
    47   29   30 ar
    48   29   46 1
    49   30   31 ar
@<TRIPOS>SUBSTRUCTURE
     1 ATP         1 GROUP 0 A     ****
@<TRIPOS>MOLECULE
[[[5-(6-amino-7,8-dihydropurin-8-ylium-9-yl)-3,4-dihydroxy-tetrahydrofuran-2-yl]methoxy-hydroxy-phosphoryl]oxy-hydroxy-phosphoryl] hydrogen phosphate
   47    49     1     0     0
SMALL
USER_CHARGES

@<TRIPOS>ATOM
      1 PG         -6.2713   -7.0529    1.0049 P.3       1 ATP         1.5449
      2 O1G        -6.0359   -8.4285    0.4216 O.co2     1 ATP        -0.8177
      3 O2G        -6.7230   -5.9072    0.1267 O.co2     1 ATP        -0.8177
      4 O3G        -7.3140   -7.1936    2.2534 O.3       1 ATP        -0.7779
      5 PB         -4.3704   -5.1446    2.2391 P.3       1 ATP         1.9141
      6 O1B        -4.0725   -4.2268    1.0903 O.2       1 ATP        -0.8754
      7 O2B        -5.4616   -4.5840    3.2920 O.3       1 ATP        -0.8083
      8 O3B        -4.9390   -6.5993    1.8265 O.3       1 ATP        -0.8025
      9 PA         -1.7115   -6.2808    2.8231 P.3       1 ATP         1.8015
     10 O1A        -1.8458   -7.6751    2.2829 O.2       1 ATP        -0.8201
     11 O2A        -0.8701   -6.1798    4.2014 O.3       1 ATP        -0.8103
     12 O3A        -3.1038   -5.5348    3.1621 O.3       1 ATP        -0.8038
     13 O5'        -0.9730   -5.2421    1.8245 O.3       1 ATP        -0.5730
     14 C5'        -0.7840   -3.8935    2.2172 C.3       1 ATP         0.1929
     15 C4'        -0.0724   -3.1466    1.1027 C.3       1 ATP         0.1044
     16 O4'        -0.8674   -3.1929   -0.0945 O.3       1 ATP        -0.4079
     17 C3'         0.1338   -1.6715    1.4027 C.3       1 ATP         0.1439
     18 O3'         1.2893   -1.4445    2.1808 O.3       1 ATP        -0.5593
     19 C2'         0.2158   -1.0724    0.0128 C.3       1 ATP         0.0644
     20 O2'         1.5141   -1.2448   -0.5513 O.3       1 ATP        -0.5595
     21 C1'        -0.7897   -1.9176   -0.7583 C.3       1 ATP         0.3792
     22 N9         -2.1040   -1.3333   -0.7704 N.pl3     1 ATP        -0.5557
     23 C8         -3.2304   -1.8262   -0.2767 C.ar      1 ATP         0.2849
     24 N7         -4.2847   -1.0309   -0.4481 N.pl3     1 ATP        -0.5117
     25 C5         -3.7951    0.0479   -1.0985 C.ar      1 ATP        -0.2787
     26 C6         -4.3691    1.1983   -1.5536 C.ar      1 ATP         0.7736
     27 N6         -5.7501    1.4047   -1.3573 N.pl3     1 ATP        -0.9480
     28 N1         -3.6289    2.1345   -2.1869 N.ar      1 ATP        -0.7442
     29 C2         -2.3041    1.8525   -2.3333 C.ar      1 ATP         0.7202
     30 N3         -1.6387    0.7492   -1.9218 N.ar      1 ATP        -0.6957
     31 C4         -2.4348   -0.1293   -1.3053 C.ar      1 ATP         0.6231
     32 HOG3       -7.5704   -6.3823    2.7415 H         1 ATP         0.4452
     33 HOB2       -6.3663   -4.3785    2.9738 H         1 ATP         0.4969
     34 HOA2       -1.1920   -6.6660    4.9901 H         1 ATP         0.4779
     35 H5'1       -1.7611   -3.4417    2.4168 H         1 ATP         0.0280
     36 H5'2       -0.1868   -3.8713    3.1345 H         1 ATP         0.0280
     37 H4'         0.8886   -3.6448    0.8780 H         1 ATP         0.2049
     38 H3'        -0.7373   -1.2358    1.9870 H         1 ATP         0.1077
     39 HO3'        1.1626   -1.9325    3.0084 H         1 ATP         0.4255
     40 H2'        -0.0384   -0.0310    0.0096 H         1 ATP         0.0584
     41 HO2'        2.1463   -0.7958    0.0370 H         1 ATP         0.4149
     42 H1'        -0.4769   -2.1002   -1.8093 H         1 ATP         0.1459
     43 H8         -3.2974   -2.7789    0.2194 H         1 ATP         0.2739
     44 HN61       -6.2956    0.6838   -0.9296 H         1 ATP         0.4605
     45 HN62       -6.1788    2.2266   -1.7327 H         1 ATP         0.4605
     46 H2         -1.7135    2.6057   -2.8421 H         1 ATP         0.0904
     47 H47        -5.2337   -1.2102   -0.1507 H         1 ATP         0.5017
@<TRIPOS>BOND
     1    1    2 2
     2    1    3 1
     3    1    4 1
     4    1    8 1
     5    4   32 1
     6    5    6 2
     7    5    7 1
     8    5    8 1
     9    5   12 1
    10    7   33 1
    11    9   10 2
    12    9   11 1
    13    9   12 1
    14    9   13 1
    15   11   34 1
    16   13   14 1
    17   14   15 1
    18   14   35 1
    19   14   36 1
    20   15   16 1
    21   15   17 1
    22   15   37 1
    23   16   21 1
    24   17   18 1
    25   17   19 1
    26   17   38 1
    27   18   39 1
    28   19   20 1
    29   19   21 1
    30   19   40 1
    31   20   41 1
    32   21   22 1
    33   21   42 1
    34   22   23 ar
    35   22   31 ar
    36   23   24 ar
    37   23   43 1
    38   24   25 ar
    39   24   47 1
    40   25   26 ar
    41   25   31 ar
    42   26   27 1
    43   26   28 ar
    44   27   44 1
    45   27   45 1
    46   28   29 ar
    47   29   30 ar
    48   29   46 1
    49   30   31 ar
@<TRIPOS>SUBSTRUCTURE
     1 ATP         1 GROUP 0 A     ****
