ATP
                    3D
 Structure written by MMmdl.
 44 46  0  0  1  0            999 V2000
   46.1070   45.1820   56.9500 P   0  0  0  0  0  0
   45.7790   46.3300   56.0520 O   0  0  0  0  0  0
   47.3820   44.4970   56.6260 O   0  5  0  0  0  0
   45.9720   45.5300   58.3750 O   0  0  0  0  0  0
   43.9110   43.7400   55.6550 P   0  0  0  0  0  0
   42.9750   42.7220   55.9860 O   0  0  0  0  0  0
   43.6030   44.7670   54.6780 O   0  5  0  0  0  0
   45.0410   44.0150   56.7380 O   0  0  0  0  0  0
   45.2280   42.6690   53.2570 P   0  0  0  0  0  0
   46.3800   43.3960   52.7880 O   0  0  0  0  0  0
   44.1830   42.1900   52.3510 O   0  5  0  0  0  0
   44.9170   42.7160   54.7890 O   0  0  0  0  0  0
   46.1720   41.5680   53.3020 O   0  0  0  0  0  0
   46.6090   40.4220   53.5420 C   0  0  0  0  0  0
   46.5200   38.9890   53.3640 C   0  0  1  0  0  0
   46.7850   38.9080   51.9480 O   0  0  0  0  0  0
   47.8080   38.8740   54.1120 C   0  0  1  0  0  0
   47.7130   38.3570   55.4230 O   0  0  0  0  0  0
   48.7190   38.1160   53.1390 C   0  0  1  0  0  0
   48.6320   36.7370   53.4250 O   0  0  0  0  0  0
   48.1330   38.4090   51.7210 C   0  0  2  0  0  0
   48.8460   39.4640   50.9860 N   0  0  0  0  0  0
   48.6160   40.8420   50.9450 C   0  0  0  0  0  0
   49.4250   41.4890   50.1650 N   0  0  0  0  0  0
   50.2320   40.4700   49.6640 C   0  0  0  0  0  0
   51.3080   40.4660   48.7310 C   0  0  0  0  0  0
   51.7210   41.5680   48.1290 N   0  0  0  0  0  0
   51.9120   39.2740   48.4470 N   0  0  0  0  0  0
   51.4930   38.1510   49.0290 C   0  0  0  0  0  0
   50.4910   38.0160   49.9000 N   0  0  0  0  0  0
   49.8920   39.2530   50.1710 C   0  0  0  0  0  0
   46.5992   46.3224   58.8095 H   0  0  0  0  0  0
   47.6492   40.3457   53.1926 H   0  0  0  0  0  0
   46.5714   40.2346   54.6253 H   0  0  0  0  0  0
   45.6654   38.3452   53.6190 H   0  0  0  0  0  0
   48.2020   39.8423   54.4542 H   0  0  0  0  0  0
   47.0751   38.8571   56.1666 H   0  0  0  0  0  0
   49.7910   38.3380   53.2466 H   0  0  0  0  0  0
   49.0003   36.3505   54.3868 H   0  0  0  0  0  0
   48.1676   37.5175   51.0776 H   0  0  0  0  0  0
   47.8360   41.3900   51.4990 H   0  0  0  0  0  0
   51.2389   42.5309   48.3533 H   0  0  0  0  0  0
   52.5468   41.5221   47.4038 H   0  0  0  0  0  0
   52.0360   37.2290   48.7590 H   0  0  0  0  0  0
  1  2  2  0  0  0
  1  3  1  0  0  0
  1  4  1  0  0  0
  1  8  1  0  0  0
  4 32  1  0  0  0
  5  6  2  0  0  0
  5  7  1  0  0  0
  5  8  1  0  0  0
  5 12  1  0  0  0
  9 10  2  0  0  0
  9 11  1  0  0  0
  9 12  1  0  0  0
  9 13  1  0  0  0
 13 14  1  0  0  0
 14 15  1  0  0  0
 14 33  1  0  0  0
 14 34  1  0  0  0
 15 16  1  0  0  0
 15 17  1  0  0  0
 15 35  1  0  0  0
 16 21  1  0  0  0
 17 18  1  0  0  0
 17 19  1  0  0  0
 17 36  1  0  0  0
 18 37  1  0  0  0
 19 20  1  0  0  0
 19 21  1  0  0  0
 19 38  1  0  0  0
 20 39  1  0  0  0
 21 22  1  0  0  0
 21 40  1  0  0  0
 22 23  1  0  0  0
 22 31  1  0  0  0
 23 24  2  0  0  0
 23 41  1  0  0  0
 24 25  1  0  0  0
 25 26  2  0  0  0
 25 31  1  0  0  0
 26 27  1  0  0  0
 26 28  1  0  0  0
 27 42  1  0  0  0
 27 43  1  0  0  0
 28 29  2  0  0  0
 29 30  1  0  0  0
 29 44  1  0  0  0
 30 31  2  0  0  0
M  CHG  3   3  -1   7  -1  11  -1
M  END
> <s_m_source_file>
/cbio/jclab/home/rustenburg/PFK/Epik-Ligands/Results/InProgress/ADENOSINE-5'-TRIPHOSPHATE/pH_4.0/ADENOSINE-5'-TRIPHOSPHATE_pH_4.0-before_epik.mol2

> <i_m_source_file_index>
1

> <r_lp_tautomer_probability>
0.999997216410988

> <r_epik_Ionization_Penalty>
  0.7162

> <r_epik_Ionization_Penalty_Charging>
  0.3835

> <r_epik_Ionization_Penalty_Neutral>
  0.3327

> <r_epik_State_Penalty>
  0.2008

> <r_epik_Charging_Adjusted_Penalty>
0.584356546626683

> <i_epik_Tot_Q>
-3

> <i_epik_Tot_abs_Q>
3

> <s_epik_Chemistry_Notes>
This compound contains an acetal/aminal-like group ( X-CH(R)-Y where X, Y are N, S, or O) that may be acid/base labile, releasing an aldehyde.

$$$$
ATP
                    3D
 Structure written by MMmdl.
 45 47  0  0  1  0            999 V2000
   46.1070   45.1820   56.9500 P   0  0  0  0  0  0
   45.7790   46.3300   56.0520 O   0  0  0  0  0  0
   47.3820   44.4970   56.6260 O   0  5  0  0  0  0
   45.9720   45.5300   58.3750 O   0  0  0  0  0  0
   43.9110   43.7400   55.6550 P   0  0  0  0  0  0
   42.9750   42.7220   55.9860 O   0  0  0  0  0  0
   43.6030   44.7670   54.6780 O   0  5  0  0  0  0
   45.0410   44.0150   56.7380 O   0  0  0  0  0  0
   45.2280   42.6690   53.2570 P   0  0  2  0  0  0
   46.3800   43.3960   52.7880 O   0  0  0  0  0  0
   44.1830   42.1900   52.3510 O   0  0  0  0  0  0
   44.9170   42.7160   54.7890 O   0  0  0  0  0  0
   46.1720   41.5680   53.3020 O   0  0  0  0  0  0
   46.6090   40.4220   53.5420 C   0  0  0  0  0  0
   46.5200   38.9890   53.3640 C   0  0  1  0  0  0
   46.7850   38.9080   51.9480 O   0  0  0  0  0  0
   47.8080   38.8740   54.1120 C   0  0  1  0  0  0
   47.7130   38.3570   55.4230 O   0  0  0  0  0  0
   48.7190   38.1160   53.1390 C   0  0  1  0  0  0
   48.6320   36.7370   53.4250 O   0  0  0  0  0  0
   48.1330   38.4090   51.7210 C   0  0  2  0  0  0
   48.8460   39.4640   50.9860 N   0  0  0  0  0  0
   48.6160   40.8420   50.9450 C   0  0  0  0  0  0
   49.4250   41.4890   50.1650 N   0  0  0  0  0  0
   50.2320   40.4700   49.6640 C   0  0  0  0  0  0
   51.3080   40.4660   48.7310 C   0  0  0  0  0  0
   51.7210   41.5680   48.1290 N   0  0  0  0  0  0
   51.9120   39.2740   48.4470 N   0  0  0  0  0  0
   51.4930   38.1510   49.0290 C   0  0  0  0  0  0
   50.4910   38.0160   49.9000 N   0  0  0  0  0  0
   49.8920   39.2530   50.1710 C   0  0  0  0  0  0
   46.5992   46.3224   58.8095 H   0  0  0  0  0  0
   43.3173   42.8293   52.1230 H   0  0  0  0  0  0
   47.6492   40.3457   53.1926 H   0  0  0  0  0  0
   46.5714   40.2346   54.6253 H   0  0  0  0  0  0
   45.6654   38.3452   53.6190 H   0  0  0  0  0  0
   48.2020   39.8423   54.4542 H   0  0  0  0  0  0
   47.0751   38.8571   56.1666 H   0  0  0  0  0  0
   49.7910   38.3380   53.2466 H   0  0  0  0  0  0
   49.0003   36.3505   54.3868 H   0  0  0  0  0  0
   48.1676   37.5175   51.0776 H   0  0  0  0  0  0
   47.8360   41.3900   51.4990 H   0  0  0  0  0  0
   51.2389   42.5309   48.3533 H   0  0  0  0  0  0
   52.5468   41.5221   47.4038 H   0  0  0  0  0  0
   52.0360   37.2290   48.7590 H   0  0  0  0  0  0
  1  2  2  0  0  0
  1  3  1  0  0  0
  1  4  1  0  0  0
  1  8  1  0  0  0
  4 32  1  0  0  0
  5  6  2  0  0  0
  5  7  1  0  0  0
  5  8  1  0  0  0
  5 12  1  0  0  0
  9 10  2  0  0  0
  9 11  1  0  0  0
  9 12  1  0  0  0
  9 13  1  0  0  0
 11 33  1  0  0  0
 13 14  1  0  0  0
 14 15  1  0  0  0
 14 34  1  0  0  0
 14 35  1  0  0  0
 15 16  1  0  0  0
 15 17  1  0  0  0
 15 36  1  0  0  0
 16 21  1  0  0  0
 17 18  1  0  0  0
 17 19  1  0  0  0
 17 37  1  0  0  0
 18 38  1  0  0  0
 19 20  1  0  0  0
 19 21  1  0  0  0
 19 39  1  0  0  0
 20 40  1  0  0  0
 21 22  1  0  0  0
 21 41  1  0  0  0
 22 23  1  0  0  0
 22 31  1  0  0  0
 23 24  2  0  0  0
 23 42  1  0  0  0
 24 25  1  0  0  0
 25 26  2  0  0  0
 25 31  1  0  0  0
 26 27  1  0  0  0
 26 28  1  0  0  0
 27 43  1  0  0  0
 27 44  1  0  0  0
 28 29  2  0  0  0
 29 30  1  0  0  0
 29 45  1  0  0  0
 30 31  2  0  0  0
M  CHG  2   3  -1   7  -1
M  END
> <s_m_source_file>
/cbio/jclab/home/rustenburg/PFK/Epik-Ligands/Results/InProgress/ADENOSINE-5'-TRIPHOSPHATE/pH_4.0/ADENOSINE-5'-TRIPHOSPHATE_pH_4.0-before_epik.mol2

> <i_m_source_file_index>
1

> <r_epik_Ionization_Penalty>
  1.2688

> <r_epik_Ionization_Penalty_Charging>
  0.1256

> <r_epik_Ionization_Penalty_Neutral>
  1.1433

> <r_epik_State_Penalty>
  1.5773

> <r_epik_Charging_Adjusted_Penalty>
1.70288731462444

> <i_epik_Tot_Q>
-2

> <i_epik_Tot_abs_Q>
2

> <s_epik_Chemistry_Notes>
This compound contains an acetal/aminal-like group ( X-CH(R)-Y where X, Y are N, S, or O) that may be acid/base labile, releasing an aldehyde.

$$$$
ATP
                    3D
 Structure written by MMmdl.
 45 47  0  0  1  0            999 V2000
   46.1070   45.1820   56.9500 P   0  0  0  0  0  0
   45.7790   46.3300   56.0520 O   0  0  0  0  0  0
   47.3820   44.4970   56.6260 O   0  5  0  0  0  0
   45.9720   45.5300   58.3750 O   0  0  0  0  0  0
   43.9110   43.7400   55.6550 P   0  0  1  0  0  0
   42.9750   42.7220   55.9860 O   0  0  0  0  0  0
   43.6030   44.7670   54.6780 O   0  0  0  0  0  0
   45.0410   44.0150   56.7380 O   0  0  0  0  0  0
   45.2280   42.6690   53.2570 P   0  0  0  0  0  0
   46.3800   43.3960   52.7880 O   0  0  0  0  0  0
   44.1830   42.1900   52.3510 O   0  5  0  0  0  0
   44.9170   42.7160   54.7890 O   0  0  0  0  0  0
   46.1720   41.5680   53.3020 O   0  0  0  0  0  0
   46.6090   40.4220   53.5420 C   0  0  0  0  0  0
   46.5200   38.9890   53.3640 C   0  0  1  0  0  0
   46.7850   38.9080   51.9480 O   0  0  0  0  0  0
   47.8080   38.8740   54.1120 C   0  0  1  0  0  0
   47.7130   38.3570   55.4230 O   0  0  0  0  0  0
   48.7190   38.1160   53.1390 C   0  0  1  0  0  0
   48.6320   36.7370   53.4250 O   0  0  0  0  0  0
   48.1330   38.4090   51.7210 C   0  0  2  0  0  0
   48.8460   39.4640   50.9860 N   0  0  0  0  0  0
   48.6160   40.8420   50.9450 C   0  0  0  0  0  0
   49.4250   41.4890   50.1650 N   0  0  0  0  0  0
   50.2320   40.4700   49.6640 C   0  0  0  0  0  0
   51.3080   40.4660   48.7310 C   0  0  0  0  0  0
   51.7210   41.5680   48.1290 N   0  0  0  0  0  0
   51.9120   39.2740   48.4470 N   0  0  0  0  0  0
   51.4930   38.1510   49.0290 C   0  0  0  0  0  0
   50.4910   38.0160   49.9000 N   0  0  0  0  0  0
   49.8920   39.2530   50.1710 C   0  0  0  0  0  0
   46.5992   46.3224   58.8095 H   0  0  0  0  0  0
   42.9452   45.6055   54.9502 H   0  0  0  0  0  0
   47.6492   40.3457   53.1926 H   0  0  0  0  0  0
   46.5714   40.2346   54.6253 H   0  0  0  0  0  0
   45.6654   38.3452   53.6190 H   0  0  0  0  0  0
   48.2020   39.8423   54.4542 H   0  0  0  0  0  0
   47.0751   38.8571   56.1666 H   0  0  0  0  0  0
   49.7910   38.3380   53.2466 H   0  0  0  0  0  0
   49.0003   36.3505   54.3868 H   0  0  0  0  0  0
   48.1676   37.5175   51.0776 H   0  0  0  0  0  0
   47.8360   41.3900   51.4990 H   0  0  0  0  0  0
   51.2389   42.5309   48.3533 H   0  0  0  0  0  0
   52.5468   41.5221   47.4038 H   0  0  0  0  0  0
   52.0360   37.2290   48.7590 H   0  0  0  0  0  0
  1  2  2  0  0  0
  1  3  1  0  0  0
  1  4  1  0  0  0
  1  8  1  0  0  0
  4 32  1  0  0  0
  5  6  2  0  0  0
  5  7  1  0  0  0
  5  8  1  0  0  0
  5 12  1  0  0  0
  7 33  1  0  0  0
  9 10  2  0  0  0
  9 11  1  0  0  0
  9 12  1  0  0  0
  9 13  1  0  0  0
 13 14  1  0  0  0
 14 15  1  0  0  0
 14 34  1  0  0  0
 14 35  1  0  0  0
 15 16  1  0  0  0
 15 17  1  0  0  0
 15 36  1  0  0  0
 16 21  1  0  0  0
 17 18  1  0  0  0
 17 19  1  0  0  0
 17 37  1  0  0  0
 18 38  1  0  0  0
 19 20  1  0  0  0
 19 21  1  0  0  0
 19 39  1  0  0  0
 20 40  1  0  0  0
 21 22  1  0  0  0
 21 41  1  0  0  0
 22 23  1  0  0  0
 22 31  1  0  0  0
 23 24  2  0  0  0
 23 42  1  0  0  0
 24 25  1  0  0  0
 25 26  2  0  0  0
 25 31  1  0  0  0
 26 27  1  0  0  0
 26 28  1  0  0  0
 27 43  1  0  0  0
 27 44  1  0  0  0
 28 29  2  0  0  0
 29 30  1  0  0  0
 29 45  1  0  0  0
 30 31  2  0  0  0
M  CHG  2   3  -1  11  -1
M  END
> <s_m_source_file>
/cbio/jclab/home/rustenburg/PFK/Epik-Ligands/Results/InProgress/ADENOSINE-5'-TRIPHOSPHATE/pH_4.0/ADENOSINE-5'-TRIPHOSPHATE_pH_4.0-before_epik.mol2

> <i_m_source_file_index>
1

> <r_epik_Ionization_Penalty>
  1.4700

> <r_epik_Ionization_Penalty_Charging>
  0.1003

> <r_epik_Ionization_Penalty_Neutral>
  1.3697

> <r_epik_State_Penalty>
  1.7440

> <r_epik_Charging_Adjusted_Penalty>
1.84430502287329

> <i_epik_Tot_Q>
-2

> <i_epik_Tot_abs_Q>
2

> <s_epik_Chemistry_Notes>
This compound contains an acetal/aminal-like group ( X-CH(R)-Y where X, Y are N, S, or O) that may be acid/base labile, releasing an aldehyde.

$$$$
ATP
                    3D
 Structure written by MMmdl.
 45 47  0  0  1  0            999 V2000
   46.1070   45.1820   56.9500 P   0  0  0  0  0  0
   45.7790   46.3300   56.0520 O   0  0  0  0  0  0
   47.3820   44.4970   56.6260 O   0  5  0  0  0  0
   45.9720   45.5300   58.3750 O   0  0  0  0  0  0
   43.9110   43.7400   55.6550 P   0  0  0  0  0  0
   42.9750   42.7220   55.9860 O   0  0  0  0  0  0
   43.6030   44.7670   54.6780 O   0  5  0  0  0  0
   45.0410   44.0150   56.7380 O   0  0  0  0  0  0
   45.2280   42.6690   53.2570 P   0  0  0  0  0  0
   46.3800   43.3960   52.7880 O   0  0  0  0  0  0
   44.1830   42.1900   52.3510 O   0  5  0  0  0  0
   44.9170   42.7160   54.7890 O   0  0  0  0  0  0
   46.1720   41.5680   53.3020 O   0  0  0  0  0  0
   46.6090   40.4220   53.5420 C   0  0  0  0  0  0
   46.5200   38.9890   53.3640 C   0  0  1  0  0  0
   46.7850   38.9080   51.9480 O   0  0  0  0  0  0
   47.8080   38.8740   54.1120 C   0  0  1  0  0  0
   47.7130   38.3570   55.4230 O   0  0  0  0  0  0
   48.7190   38.1160   53.1390 C   0  0  1  0  0  0
   48.6320   36.7370   53.4250 O   0  0  0  0  0  0
   48.1330   38.4090   51.7210 C   0  0  2  0  0  0
   48.8460   39.4640   50.9860 N   0  0  0  0  0  0
   48.6160   40.8420   50.9450 C   0  0  0  0  0  0
   49.4250   41.4890   50.1650 N   0  0  0  0  0  0
   50.2320   40.4700   49.6640 C   0  0  0  0  0  0
   51.3080   40.4660   48.7310 C   0  0  0  0  0  0
   51.7210   41.5680   48.1290 N   0  0  0  0  0  0
   51.9120   39.2740   48.4470 N   0  3  0  0  0  0
   51.4930   38.1510   49.0290 C   0  0  0  0  0  0
   50.4910   38.0160   49.9000 N   0  0  0  0  0  0
   49.8920   39.2530   50.1710 C   0  0  0  0  0  0
   46.5992   46.3224   58.8095 H   0  0  0  0  0  0
   47.6492   40.3457   53.1926 H   0  0  0  0  0  0
   46.5714   40.2346   54.6253 H   0  0  0  0  0  0
   45.6654   38.3452   53.6190 H   0  0  0  0  0  0
   48.2020   39.8423   54.4542 H   0  0  0  0  0  0
   47.0751   38.8571   56.1666 H   0  0  0  0  0  0
   49.7910   38.3380   53.2466 H   0  0  0  0  0  0
   49.0003   36.3505   54.3868 H   0  0  0  0  0  0
   48.1676   37.5175   51.0776 H   0  0  0  0  0  0
   47.8360   41.3900   51.4990 H   0  0  0  0  0  0
   51.2389   42.5309   48.3533 H   0  0  0  0  0  0
   52.5468   41.5221   47.4038 H   0  0  0  0  0  0
   52.0360   37.2290   48.7590 H   0  0  0  0  0  0
   52.7492   39.2376   47.7344 H   0  0  0  0  0  0
  1  2  2  0  0  0
  1  3  1  0  0  0
  1  4  1  0  0  0
  1  8  1  0  0  0
  4 32  1  0  0  0
  5  6  2  0  0  0
  5  7  1  0  0  0
  5  8  1  0  0  0
  5 12  1  0  0  0
  9 10  2  0  0  0
  9 11  1  0  0  0
  9 12  1  0  0  0
  9 13  1  0  0  0
 13 14  1  0  0  0
 14 15  1  0  0  0
 14 33  1  0  0  0
 14 34  1  0  0  0
 15 16  1  0  0  0
 15 17  1  0  0  0
 15 35  1  0  0  0
 16 21  1  0  0  0
 17 18  1  0  0  0
 17 19  1  0  0  0
 17 36  1  0  0  0
 18 37  1  0  0  0
 19 20  1  0  0  0
 19 21  1  0  0  0
 19 38  1  0  0  0
 20 39  1  0  0  0
 21 22  1  0  0  0
 21 40  1  0  0  0
 22 23  1  0  0  0
 22 31  1  0  0  0
 23 24  2  0  0  0
 23 41  1  0  0  0
 24 25  1  0  0  0
 25 26  2  0  0  0
 25 31  1  0  0  0
 26 27  1  0  0  0
 26 28  1  0  0  0
 27 42  1  0  0  0
 27 43  1  0  0  0
 28 29  2  0  0  0
 28 45  1  0  0  0
 29 30  1  0  0  0
 29 44  1  0  0  0
 30 31  2  0  0  0
M  CHG  4   3  -1   7  -1  11  -1  28   1
M  END
> <s_m_source_file>
/cbio/jclab/home/rustenburg/PFK/Epik-Ligands/Results/InProgress/ADENOSINE-5'-TRIPHOSPHATE/pH_4.0/ADENOSINE-5'-TRIPHOSPHATE_pH_4.0-before_epik.mol2

> <i_m_source_file_index>
1

> <r_lp_tautomer_probability>
0.978911883040575

> <r_epik_Ionization_Penalty>
  0.9354

> <r_epik_Ionization_Penalty_Charging>
  0.9248

> <r_epik_Ionization_Penalty_Neutral>
  0.0106

> <r_epik_State_Penalty>
  1.7806

> <r_epik_Charging_Adjusted_Penalty>
2.70535190341202

> <i_epik_Tot_Q>
-2

> <i_epik_Tot_abs_Q>
4

> <s_epik_Chemistry_Notes>
This compound contains an acetal/aminal-like group ( X-CH(R)-Y where X, Y are N, S, or O) that may be acid/base labile, releasing an aldehyde.

$$$$
ATP
                    3D
 Structure written by MMmdl.
 45 47  0  0  1  0            999 V2000
   46.1070   45.1820   56.9500 P   0  0  0  0  0  0
   45.7790   46.3300   56.0520 O   0  0  0  0  0  0
   47.3820   44.4970   56.6260 O   0  0  0  0  0  0
   45.9720   45.5300   58.3750 O   0  0  0  0  0  0
   43.9110   43.7400   55.6550 P   0  0  0  0  0  0
   42.9750   42.7220   55.9860 O   0  0  0  0  0  0
   43.6030   44.7670   54.6780 O   0  5  0  0  0  0
   45.0410   44.0150   56.7380 O   0  0  0  0  0  0
   45.2280   42.6690   53.2570 P   0  0  0  0  0  0
   46.3800   43.3960   52.7880 O   0  0  0  0  0  0
   44.1830   42.1900   52.3510 O   0  5  0  0  0  0
   44.9170   42.7160   54.7890 O   0  0  0  0  0  0
   46.1720   41.5680   53.3020 O   0  0  0  0  0  0
   46.6090   40.4220   53.5420 C   0  0  0  0  0  0
   46.5200   38.9890   53.3640 C   0  0  1  0  0  0
   46.7850   38.9080   51.9480 O   0  0  0  0  0  0
   47.8080   38.8740   54.1120 C   0  0  1  0  0  0
   47.7130   38.3570   55.4230 O   0  0  0  0  0  0
   48.7190   38.1160   53.1390 C   0  0  1  0  0  0
   48.6320   36.7370   53.4250 O   0  0  0  0  0  0
   48.1330   38.4090   51.7210 C   0  0  2  0  0  0
   48.8460   39.4640   50.9860 N   0  0  0  0  0  0
   48.6160   40.8420   50.9450 C   0  0  0  0  0  0
   49.4250   41.4890   50.1650 N   0  0  0  0  0  0
   50.2320   40.4700   49.6640 C   0  0  0  0  0  0
   51.3080   40.4660   48.7310 C   0  0  0  0  0  0
   51.7210   41.5680   48.1290 N   0  0  0  0  0  0
   51.9120   39.2740   48.4470 N   0  0  0  0  0  0
   51.4930   38.1510   49.0290 C   0  0  0  0  0  0
   50.4910   38.0160   49.9000 N   0  0  0  0  0  0
   49.8920   39.2530   50.1710 C   0  0  0  0  0  0
   48.3320   45.0490   56.6795 H   0  0  0  0  0  0
   46.5992   46.3224   58.8095 H   0  0  0  0  0  0
   47.6492   40.3457   53.1926 H   0  0  0  0  0  0
   46.5714   40.2346   54.6253 H   0  0  0  0  0  0
   45.6654   38.3452   53.6190 H   0  0  0  0  0  0
   48.2020   39.8423   54.4542 H   0  0  0  0  0  0
   47.0751   38.8571   56.1666 H   0  0  0  0  0  0
   49.7910   38.3380   53.2466 H   0  0  0  0  0  0
   49.0003   36.3505   54.3868 H   0  0  0  0  0  0
   48.1676   37.5175   51.0776 H   0  0  0  0  0  0
   47.8360   41.3900   51.4990 H   0  0  0  0  0  0
   51.2389   42.5309   48.3533 H   0  0  0  0  0  0
   52.5468   41.5221   47.4038 H   0  0  0  0  0  0
   52.0360   37.2290   48.7590 H   0  0  0  0  0  0
  1  2  2  0  0  0
  1  3  1  0  0  0
  1  4  1  0  0  0
  1  8  1  0  0  0
  3 32  1  0  0  0
  4 33  1  0  0  0
  5  6  2  0  0  0
  5  7  1  0  0  0
  5  8  1  0  0  0
  5 12  1  0  0  0
  9 10  2  0  0  0
  9 11  1  0  0  0
  9 12  1  0  0  0
  9 13  1  0  0  0
 13 14  1  0  0  0
 14 15  1  0  0  0
 14 34  1  0  0  0
 14 35  1  0  0  0
 15 16  1  0  0  0
 15 17  1  0  0  0
 15 36  1  0  0  0
 16 21  1  0  0  0
 17 18  1  0  0  0
 17 19  1  0  0  0
 17 37  1  0  0  0
 18 38  1  0  0  0
 19 20  1  0  0  0
 19 21  1  0  0  0
 19 39  1  0  0  0
 20 40  1  0  0  0
 21 22  1  0  0  0
 21 41  1  0  0  0
 22 23  1  0  0  0
 22 31  1  0  0  0
 23 24  2  0  0  0
 23 42  1  0  0  0
 24 25  1  0  0  0
 25 26  2  0  0  0
 25 31  1  0  0  0
 26 27  1  0  0  0
 26 28  1  0  0  0
 27 43  1  0  0  0
 27 44  1  0  0  0
 28 29  2  0  0  0
 29 30  1  0  0  0
 29 45  1  0  0  0
 30 31  2  0  0  0
M  CHG  2   7  -1  11  -1
M  END
> <s_m_source_file>
/cbio/jclab/home/rustenburg/PFK/Epik-Ligands/Results/InProgress/ADENOSINE-5'-TRIPHOSPHATE/pH_4.0/ADENOSINE-5'-TRIPHOSPHATE_pH_4.0-before_epik.mol2

> <i_m_source_file_index>
1

> <r_epik_Ionization_Penalty>
  1.7012

> <r_epik_Ionization_Penalty_Charging>
  0.2341

> <r_epik_Ionization_Penalty_Neutral>
  1.4671

> <r_epik_State_Penalty>
  2.0796

> <r_epik_Charging_Adjusted_Penalty>
2.31375598756436

> <i_epik_Tot_Q>
-2

> <i_epik_Tot_abs_Q>
2

> <s_epik_Chemistry_Notes>
This compound contains an acetal/aminal-like group ( X-CH(R)-Y where X, Y are N, S, or O) that may be acid/base labile, releasing an aldehyde.

$$$$
ATP
                    3D
 Structure written by MMmdl.
 46 48  0  0  1  0            999 V2000
   46.1070   45.1820   56.9500 P   0  0  0  0  0  0
   45.7790   46.3300   56.0520 O   0  0  0  0  0  0
   47.3820   44.4970   56.6260 O   0  5  0  0  0  0
   45.9720   45.5300   58.3750 O   0  0  0  0  0  0
   43.9110   43.7400   55.6550 P   0  0  0  0  0  0
   42.9750   42.7220   55.9860 O   0  0  0  0  0  0
   43.6030   44.7670   54.6780 O   0  5  0  0  0  0
   45.0410   44.0150   56.7380 O   0  0  0  0  0  0
   45.2280   42.6690   53.2570 P   0  0  2  0  0  0
   46.3800   43.3960   52.7880 O   0  0  0  0  0  0
   44.1830   42.1900   52.3510 O   0  0  0  0  0  0
   44.9170   42.7160   54.7890 O   0  0  0  0  0  0
   46.1720   41.5680   53.3020 O   0  0  0  0  0  0
   46.6090   40.4220   53.5420 C   0  0  0  0  0  0
   46.5200   38.9890   53.3640 C   0  0  1  0  0  0
   46.7850   38.9080   51.9480 O   0  0  0  0  0  0
   47.8080   38.8740   54.1120 C   0  0  1  0  0  0
   47.7130   38.3570   55.4230 O   0  0  0  0  0  0
   48.7190   38.1160   53.1390 C   0  0  1  0  0  0
   48.6320   36.7370   53.4250 O   0  0  0  0  0  0
   48.1330   38.4090   51.7210 C   0  0  2  0  0  0
   48.8460   39.4640   50.9860 N   0  0  0  0  0  0
   48.6160   40.8420   50.9450 C   0  0  0  0  0  0
   49.4250   41.4890   50.1650 N   0  0  0  0  0  0
   50.2320   40.4700   49.6640 C   0  0  0  0  0  0
   51.3080   40.4660   48.7310 C   0  0  0  0  0  0
   51.7210   41.5680   48.1290 N   0  0  0  0  0  0
   51.9120   39.2740   48.4470 N   0  3  0  0  0  0
   51.4930   38.1510   49.0290 C   0  0  0  0  0  0
   50.4910   38.0160   49.9000 N   0  0  0  0  0  0
   49.8920   39.2530   50.1710 C   0  0  0  0  0  0
   46.5992   46.3224   58.8095 H   0  0  0  0  0  0
   43.3173   42.8293   52.1230 H   0  0  0  0  0  0
   47.6492   40.3457   53.1926 H   0  0  0  0  0  0
   46.5714   40.2346   54.6253 H   0  0  0  0  0  0
   45.6654   38.3452   53.6190 H   0  0  0  0  0  0
   48.2020   39.8423   54.4542 H   0  0  0  0  0  0
   47.0751   38.8571   56.1666 H   0  0  0  0  0  0
   49.7910   38.3380   53.2466 H   0  0  0  0  0  0
   49.0003   36.3505   54.3868 H   0  0  0  0  0  0
   48.1676   37.5175   51.0776 H   0  0  0  0  0  0
   47.8360   41.3900   51.4990 H   0  0  0  0  0  0
   51.2389   42.5309   48.3533 H   0  0  0  0  0  0
   52.5468   41.5221   47.4038 H   0  0  0  0  0  0
   52.0360   37.2290   48.7590 H   0  0  0  0  0  0
   52.7492   39.2376   47.7344 H   0  0  0  0  0  0
  1  2  2  0  0  0
  1  3  1  0  0  0
  1  4  1  0  0  0
  1  8  1  0  0  0
  4 32  1  0  0  0
  5  6  2  0  0  0
  5  7  1  0  0  0
  5  8  1  0  0  0
  5 12  1  0  0  0
  9 10  2  0  0  0
  9 11  1  0  0  0
  9 12  1  0  0  0
  9 13  1  0  0  0
 11 33  1  0  0  0
 13 14  1  0  0  0
 14 15  1  0  0  0
 14 34  1  0  0  0
 14 35  1  0  0  0
 15 16  1  0  0  0
 15 17  1  0  0  0
 15 36  1  0  0  0
 16 21  1  0  0  0
 17 18  1  0  0  0
 17 19  1  0  0  0
 17 37  1  0  0  0
 18 38  1  0  0  0
 19 20  1  0  0  0
 19 21  1  0  0  0
 19 39  1  0  0  0
 20 40  1  0  0  0
 21 22  1  0  0  0
 21 41  1  0  0  0
 22 23  1  0  0  0
 22 31  1  0  0  0
 23 24  2  0  0  0
 23 42  1  0  0  0
 24 25  1  0  0  0
 25 26  2  0  0  0
 25 31  1  0  0  0
 26 27  1  0  0  0
 26 28  1  0  0  0
 27 43  1  0  0  0
 27 44  1  0  0  0
 28 29  2  0  0  0
 28 46  1  0  0  0
 29 30  1  0  0  0
 29 45  1  0  0  0
 30 31  2  0  0  0
M  CHG  3   3  -1   7  -1  28   1
M  END
> <s_m_source_file>
/cbio/jclab/home/rustenburg/PFK/Epik-Ligands/Results/InProgress/ADENOSINE-5'-TRIPHOSPHATE/pH_4.0/ADENOSINE-5'-TRIPHOSPHATE_pH_4.0-before_epik.mol2

> <i_m_source_file_index>
1

> <r_epik_Ionization_Penalty>
  1.4880

> <r_epik_Ionization_Penalty_Charging>
  0.6668

> <r_epik_Ionization_Penalty_Neutral>
  0.8212

> <r_epik_State_Penalty>
  2.3198

> <r_epik_Charging_Adjusted_Penalty>
2.98666487768977

> <i_epik_Tot_Q>
-1

> <i_epik_Tot_abs_Q>
3

> <s_epik_Chemistry_Notes>
This compound contains an acetal/aminal-like group ( X-CH(R)-Y where X, Y are N, S, or O) that may be acid/base labile, releasing an aldehyde.

$$$$
ATP
                    3D
 Structure written by MMmdl.
 46 48  0  0  1  0            999 V2000
   46.1070   45.1820   56.9500 P   0  0  0  0  0  0
   45.7790   46.3300   56.0520 O   0  0  0  0  0  0
   47.3820   44.4970   56.6260 O   0  5  0  0  0  0
   45.9720   45.5300   58.3750 O   0  0  0  0  0  0
   43.9110   43.7400   55.6550 P   0  0  1  0  0  0
   42.9750   42.7220   55.9860 O   0  0  0  0  0  0
   43.6030   44.7670   54.6780 O   0  0  0  0  0  0
   45.0410   44.0150   56.7380 O   0  0  0  0  0  0
   45.2280   42.6690   53.2570 P   0  0  0  0  0  0
   46.3800   43.3960   52.7880 O   0  0  0  0  0  0
   44.1830   42.1900   52.3510 O   0  5  0  0  0  0
   44.9170   42.7160   54.7890 O   0  0  0  0  0  0
   46.1720   41.5680   53.3020 O   0  0  0  0  0  0
   46.6090   40.4220   53.5420 C   0  0  0  0  0  0
   46.5200   38.9890   53.3640 C   0  0  1  0  0  0
   46.7850   38.9080   51.9480 O   0  0  0  0  0  0
   47.8080   38.8740   54.1120 C   0  0  1  0  0  0
   47.7130   38.3570   55.4230 O   0  0  0  0  0  0
   48.7190   38.1160   53.1390 C   0  0  1  0  0  0
   48.6320   36.7370   53.4250 O   0  0  0  0  0  0
   48.1330   38.4090   51.7210 C   0  0  2  0  0  0
   48.8460   39.4640   50.9860 N   0  0  0  0  0  0
   48.6160   40.8420   50.9450 C   0  0  0  0  0  0
   49.4250   41.4890   50.1650 N   0  0  0  0  0  0
   50.2320   40.4700   49.6640 C   0  0  0  0  0  0
   51.3080   40.4660   48.7310 C   0  0  0  0  0  0
   51.7210   41.5680   48.1290 N   0  0  0  0  0  0
   51.9120   39.2740   48.4470 N   0  3  0  0  0  0
   51.4930   38.1510   49.0290 C   0  0  0  0  0  0
   50.4910   38.0160   49.9000 N   0  0  0  0  0  0
   49.8920   39.2530   50.1710 C   0  0  0  0  0  0
   46.5992   46.3224   58.8095 H   0  0  0  0  0  0
   42.9452   45.6055   54.9502 H   0  0  0  0  0  0
   47.6492   40.3457   53.1926 H   0  0  0  0  0  0
   46.5714   40.2346   54.6253 H   0  0  0  0  0  0
   45.6654   38.3452   53.6190 H   0  0  0  0  0  0
   48.2020   39.8423   54.4542 H   0  0  0  0  0  0
   47.0751   38.8571   56.1666 H   0  0  0  0  0  0
   49.7910   38.3380   53.2466 H   0  0  0  0  0  0
   49.0003   36.3505   54.3868 H   0  0  0  0  0  0
   48.1676   37.5175   51.0776 H   0  0  0  0  0  0
   47.8360   41.3900   51.4990 H   0  0  0  0  0  0
   51.2389   42.5309   48.3533 H   0  0  0  0  0  0
   52.5468   41.5221   47.4038 H   0  0  0  0  0  0
   52.0360   37.2290   48.7590 H   0  0  0  0  0  0
   52.7492   39.2376   47.7344 H   0  0  0  0  0  0
  1  2  2  0  0  0
  1  3  1  0  0  0
  1  4  1  0  0  0
  1  8  1  0  0  0
  4 32  1  0  0  0
  5  6  2  0  0  0
  5  7  1  0  0  0
  5  8  1  0  0  0
  5 12  1  0  0  0
  7 33  1  0  0  0
  9 10  2  0  0  0
  9 11  1  0  0  0
  9 12  1  0  0  0
  9 13  1  0  0  0
 13 14  1  0  0  0
 14 15  1  0  0  0
 14 34  1  0  0  0
 14 35  1  0  0  0
 15 16  1  0  0  0
 15 17  1  0  0  0
 15 36  1  0  0  0
 16 21  1  0  0  0
 17 18  1  0  0  0
 17 19  1  0  0  0
 17 37  1  0  0  0
 18 38  1  0  0  0
 19 20  1  0  0  0
 19 21  1  0  0  0
 19 39  1  0  0  0
 20 40  1  0  0  0
 21 22  1  0  0  0
 21 41  1  0  0  0
 22 23  1  0  0  0
 22 31  1  0  0  0
 23 24  2  0  0  0
 23 42  1  0  0  0
 24 25  1  0  0  0
 25 26  2  0  0  0
 25 31  1  0  0  0
 26 27  1  0  0  0
 26 28  1  0  0  0
 27 43  1  0  0  0
 27 44  1  0  0  0
 28 29  2  0  0  0
 28 46  1  0  0  0
 29 30  1  0  0  0
 29 45  1  0  0  0
 30 31  2  0  0  0
M  CHG  3   3  -1  11  -1  28   1
M  END
> <s_m_source_file>
/cbio/jclab/home/rustenburg/PFK/Epik-Ligands/Results/InProgress/ADENOSINE-5'-TRIPHOSPHATE/pH_4.0/ADENOSINE-5'-TRIPHOSPHATE_pH_4.0-before_epik.mol2

> <i_m_source_file_index>
1

> <r_lp_tautomer_probability>
0.978911883040575

> <r_epik_Ionization_Penalty>
  1.6892

> <r_epik_Ionization_Penalty_Charging>
  0.6416

> <r_epik_Ionization_Penalty_Neutral>
  1.0477

> <r_epik_State_Penalty>
  2.5068

> <r_epik_Charging_Adjusted_Penalty>
3.14841366673103

> <i_epik_Tot_Q>
-1

> <i_epik_Tot_abs_Q>
3

> <s_epik_Chemistry_Notes>
This compound contains an acetal/aminal-like group ( X-CH(R)-Y where X, Y are N, S, or O) that may be acid/base labile, releasing an aldehyde.

$$$$
ATP
                    3D
 Structure written by MMmdl.
 45 47  0  0  1  0            999 V2000
   46.1070   45.1820   56.9500 P   0  0  0  0  0  0
   45.7790   46.3300   56.0520 O   0  0  0  0  0  0
   47.3820   44.4970   56.6260 O   0  5  0  0  0  0
   45.9720   45.5300   58.3750 O   0  0  0  0  0  0
   43.9110   43.7400   55.6550 P   0  0  0  0  0  0
   42.9750   42.7220   55.9860 O   0  0  0  0  0  0
   43.6030   44.7670   54.6780 O   0  5  0  0  0  0
   45.0410   44.0150   56.7380 O   0  0  0  0  0  0
   45.2280   42.6690   53.2570 P   0  0  0  0  0  0
   46.3800   43.3960   52.7880 O   0  0  0  0  0  0
   44.1830   42.1900   52.3510 O   0  5  0  0  0  0
   44.9170   42.7160   54.7890 O   0  0  0  0  0  0
   46.1720   41.5680   53.3020 O   0  0  0  0  0  0
   46.6090   40.4220   53.5420 C   0  0  0  0  0  0
   46.5200   38.9890   53.3640 C   0  0  1  0  0  0
   46.7850   38.9080   51.9480 O   0  0  0  0  0  0
   47.8080   38.8740   54.1120 C   0  0  1  0  0  0
   47.7130   38.3570   55.4230 O   0  0  0  0  0  0
   48.7190   38.1160   53.1390 C   0  0  1  0  0  0
   48.6320   36.7370   53.4250 O   0  0  0  0  0  0
   48.1330   38.4090   51.7210 C   0  0  2  0  0  0
   48.8460   39.4640   50.9860 N   0  0  0  0  0  0
   48.6160   40.8420   50.9450 C   0  0  0  0  0  0
   49.4250   41.4890   50.1650 N   0  3  0  0  0  0
   50.2320   40.4700   49.6640 C   0  0  0  0  0  0
   51.3080   40.4660   48.7310 C   0  0  0  0  0  0
   51.7210   41.5680   48.1290 N   0  0  0  0  0  0
   51.9120   39.2740   48.4470 N   0  0  0  0  0  0
   51.4930   38.1510   49.0290 C   0  0  0  0  0  0
   50.4910   38.0160   49.9000 N   0  0  0  0  0  0
   49.8920   39.2530   50.1710 C   0  0  0  0  0  0
   46.5992   46.3224   58.8095 H   0  0  0  0  0  0
   47.6492   40.3457   53.1926 H   0  0  0  0  0  0
   46.5714   40.2346   54.6253 H   0  0  0  0  0  0
   45.6654   38.3452   53.6190 H   0  0  0  0  0  0
   48.2020   39.8423   54.4542 H   0  0  0  0  0  0
   47.0751   38.8571   56.1666 H   0  0  0  0  0  0
   49.7910   38.3380   53.2466 H   0  0  0  0  0  0
   49.0003   36.3505   54.3868 H   0  0  0  0  0  0
   48.1676   37.5175   51.0776 H   0  0  0  0  0  0
   47.8360   41.3900   51.4990 H   0  0  0  0  0  0
   51.2389   42.5309   48.3533 H   0  0  0  0  0  0
   52.5468   41.5221   47.4038 H   0  0  0  0  0  0
   52.0360   37.2290   48.7590 H   0  0  0  0  0  0
   49.3328   42.5801   50.0600 H   0  0  0  0  0  0
  1  2  2  0  0  0
  1  3  1  0  0  0
  1  4  1  0  0  0
  1  8  1  0  0  0
  4 32  1  0  0  0
  5  6  2  0  0  0
  5  7  1  0  0  0
  5  8  1  0  0  0
  5 12  1  0  0  0
  9 10  2  0  0  0
  9 11  1  0  0  0
  9 12  1  0  0  0
  9 13  1  0  0  0
 13 14  1  0  0  0
 14 15  1  0  0  0
 14 33  1  0  0  0
 14 34  1  0  0  0
 15 16  1  0  0  0
 15 17  1  0  0  0
 15 35  1  0  0  0
 16 21  1  0  0  0
 17 18  1  0  0  0
 17 19  1  0  0  0
 17 36  1  0  0  0
 18 37  1  0  0  0
 19 20  1  0  0  0
 19 21  1  0  0  0
 19 38  1  0  0  0
 20 39  1  0  0  0
 21 22  1  0  0  0
 21 40  1  0  0  0
 22 23  1  0  0  0
 22 31  1  0  0  0
 23 24  2  0  0  0
 23 41  1  0  0  0
 24 25  1  0  0  0
 24 45  1  0  0  0
 25 26  2  0  0  0
 25 31  1  0  0  0
 26 27  1  0  0  0
 26 28  1  0  0  0
 27 42  1  0  0  0
 27 43  1  0  0  0
 28 29  2  0  0  0
 29 30  1  0  0  0
 29 44  1  0  0  0
 30 31  2  0  0  0
M  CHG  4   3  -1   7  -1  11  -1  24   1
M  END
> <s_m_source_file>
/cbio/jclab/home/rustenburg/PFK/Epik-Ligands/Results/InProgress/ADENOSINE-5'-TRIPHOSPHATE/pH_4.0/ADENOSINE-5'-TRIPHOSPHATE_pH_4.0-before_epik.mol2

> <i_m_source_file_index>
1

> <r_epik_Ionization_Penalty>
  2.2885

> <r_epik_Ionization_Penalty_Charging>
  2.2763

> <r_epik_Ionization_Penalty_Neutral>
  0.0121

> <r_epik_State_Penalty>
  2.6999

> <r_epik_Charging_Adjusted_Penalty>
4.97628266890205

> <i_epik_Tot_Q>
-2

> <i_epik_Tot_abs_Q>
4

> <s_epik_Chemistry_Notes>
This compound contains an acetal/aminal-like group ( X-CH(R)-Y where X, Y are N, S, or O) that may be acid/base labile, releasing an aldehyde.

$$$$
ATP
                    3D
 Structure written by MMmdl.
 46 48  0  0  1  0            999 V2000
   46.1070   45.1820   56.9500 P   0  0  0  0  0  0
   45.7790   46.3300   56.0520 O   0  0  0  0  0  0
   47.3820   44.4970   56.6260 O   0  0  0  0  0  0
   45.9720   45.5300   58.3750 O   0  0  0  0  0  0
   43.9110   43.7400   55.6550 P   0  0  0  0  0  0
   42.9750   42.7220   55.9860 O   0  0  0  0  0  0
   43.6030   44.7670   54.6780 O   0  5  0  0  0  0
   45.0410   44.0150   56.7380 O   0  0  0  0  0  0
   45.2280   42.6690   53.2570 P   0  0  0  0  0  0
   46.3800   43.3960   52.7880 O   0  0  0  0  0  0
   44.1830   42.1900   52.3510 O   0  5  0  0  0  0
   44.9170   42.7160   54.7890 O   0  0  0  0  0  0
   46.1720   41.5680   53.3020 O   0  0  0  0  0  0
   46.6090   40.4220   53.5420 C   0  0  0  0  0  0
   46.5200   38.9890   53.3640 C   0  0  1  0  0  0
   46.7850   38.9080   51.9480 O   0  0  0  0  0  0
   47.8080   38.8740   54.1120 C   0  0  1  0  0  0
   47.7130   38.3570   55.4230 O   0  0  0  0  0  0
   48.7190   38.1160   53.1390 C   0  0  1  0  0  0
   48.6320   36.7370   53.4250 O   0  0  0  0  0  0
   48.1330   38.4090   51.7210 C   0  0  2  0  0  0
   48.8460   39.4640   50.9860 N   0  0  0  0  0  0
   48.6160   40.8420   50.9450 C   0  0  0  0  0  0
   49.4250   41.4890   50.1650 N   0  0  0  0  0  0
   50.2320   40.4700   49.6640 C   0  0  0  0  0  0
   51.3080   40.4660   48.7310 C   0  0  0  0  0  0
   51.7210   41.5680   48.1290 N   0  0  0  0  0  0
   51.9120   39.2740   48.4470 N   0  3  0  0  0  0
   51.4930   38.1510   49.0290 C   0  0  0  0  0  0
   50.4910   38.0160   49.9000 N   0  0  0  0  0  0
   49.8920   39.2530   50.1710 C   0  0  0  0  0  0
   48.3320   45.0490   56.6795 H   0  0  0  0  0  0
   46.5992   46.3224   58.8095 H   0  0  0  0  0  0
   47.6492   40.3457   53.1926 H   0  0  0  0  0  0
   46.5714   40.2346   54.6253 H   0  0  0  0  0  0
   45.6654   38.3452   53.6190 H   0  0  0  0  0  0
   48.2020   39.8423   54.4542 H   0  0  0  0  0  0
   47.0751   38.8571   56.1666 H   0  0  0  0  0  0
   49.7910   38.3380   53.2466 H   0  0  0  0  0  0
   49.0003   36.3505   54.3868 H   0  0  0  0  0  0
   48.1676   37.5175   51.0776 H   0  0  0  0  0  0
   47.8360   41.3900   51.4990 H   0  0  0  0  0  0
   51.2389   42.5309   48.3533 H   0  0  0  0  0  0
   52.5468   41.5221   47.4038 H   0  0  0  0  0  0
   52.0360   37.2290   48.7590 H   0  0  0  0  0  0
   52.7492   39.2376   47.7344 H   0  0  0  0  0  0
  1  2  2  0  0  0
  1  3  1  0  0  0
  1  4  1  0  0  0
  1  8  1  0  0  0
  3 32  1  0  0  0
  4 33  1  0  0  0
  5  6  2  0  0  0
  5  7  1  0  0  0
  5  8  1  0  0  0
  5 12  1  0  0  0
  9 10  2  0  0  0
  9 11  1  0  0  0
  9 12  1  0  0  0
  9 13  1  0  0  0
 13 14  1  0  0  0
 14 15  1  0  0  0
 14 34  1  0  0  0
 14 35  1  0  0  0
 15 16  1  0  0  0
 15 17  1  0  0  0
 15 36  1  0  0  0
 16 21  1  0  0  0
 17 18  1  0  0  0
 17 19  1  0  0  0
 17 37  1  0  0  0
 18 38  1  0  0  0
 19 20  1  0  0  0
 19 21  1  0  0  0
 19 39  1  0  0  0
 20 40  1  0  0  0
 21 22  1  0  0  0
 21 41  1  0  0  0
 22 23  1  0  0  0
 22 31  1  0  0  0
 23 24  2  0  0  0
 23 42  1  0  0  0
 24 25  1  0  0  0
 25 26  2  0  0  0
 25 31  1  0  0  0
 26 27  1  0  0  0
 26 28  1  0  0  0
 27 43  1  0  0  0
 27 44  1  0  0  0
 28 29  2  0  0  0
 28 46  1  0  0  0
 29 30  1  0  0  0
 29 45  1  0  0  0
 30 31  2  0  0  0
M  CHG  3   7  -1  11  -1  28   1
M  END
> <s_m_source_file>
/cbio/jclab/home/rustenburg/PFK/Epik-Ligands/Results/InProgress/ADENOSINE-5'-TRIPHOSPHATE/pH_4.0/ADENOSINE-5'-TRIPHOSPHATE_pH_4.0-before_epik.mol2

> <i_m_source_file_index>
1

> <r_epik_Ionization_Penalty>
  1.9204

> <r_epik_Ionization_Penalty_Charging>
  0.7754

> <r_epik_Ionization_Penalty_Neutral>
  1.1451

> <r_epik_State_Penalty>
  2.8562

> <r_epik_Charging_Adjusted_Penalty>
3.63161765193006

> <i_epik_Tot_Q>
-1

> <i_epik_Tot_abs_Q>
3

> <s_epik_Chemistry_Notes>
This compound contains an acetal/aminal-like group ( X-CH(R)-Y where X, Y are N, S, or O) that may be acid/base labile, releasing an aldehyde.

$$$$
ATP
                    3D
 Structure written by MMmdl.
 46 48  0  0  1  0            999 V2000
   46.1070   45.1820   56.9500 P   0  0  0  0  0  0
   45.7790   46.3300   56.0520 O   0  0  0  0  0  0
   47.3820   44.4970   56.6260 O   0  0  0  0  0  0
   45.9720   45.5300   58.3750 O   0  0  0  0  0  0
   43.9110   43.7400   55.6550 P   0  0  0  0  0  0
   42.9750   42.7220   55.9860 O   0  0  0  0  0  0
   43.6030   44.7670   54.6780 O   0  5  0  0  0  0
   45.0410   44.0150   56.7380 O   0  0  0  0  0  0
   45.2280   42.6690   53.2570 P   0  0  2  0  0  0
   46.3800   43.3960   52.7880 O   0  0  0  0  0  0
   44.1830   42.1900   52.3510 O   0  0  0  0  0  0
   44.9170   42.7160   54.7890 O   0  0  0  0  0  0
   46.1720   41.5680   53.3020 O   0  0  0  0  0  0
   46.6090   40.4220   53.5420 C   0  0  0  0  0  0
   46.5200   38.9890   53.3640 C   0  0  1  0  0  0
   46.7850   38.9080   51.9480 O   0  0  0  0  0  0
   47.8080   38.8740   54.1120 C   0  0  1  0  0  0
   47.7130   38.3570   55.4230 O   0  0  0  0  0  0
   48.7190   38.1160   53.1390 C   0  0  1  0  0  0
   48.6320   36.7370   53.4250 O   0  0  0  0  0  0
   48.1330   38.4090   51.7210 C   0  0  2  0  0  0
   48.8460   39.4640   50.9860 N   0  0  0  0  0  0
   48.6160   40.8420   50.9450 C   0  0  0  0  0  0
   49.4250   41.4890   50.1650 N   0  0  0  0  0  0
   50.2320   40.4700   49.6640 C   0  0  0  0  0  0
   51.3080   40.4660   48.7310 C   0  0  0  0  0  0
   51.7210   41.5680   48.1290 N   0  0  0  0  0  0
   51.9120   39.2740   48.4470 N   0  0  0  0  0  0
   51.4930   38.1510   49.0290 C   0  0  0  0  0  0
   50.4910   38.0160   49.9000 N   0  0  0  0  0  0
   49.8920   39.2530   50.1710 C   0  0  0  0  0  0
   48.3320   45.0490   56.6795 H   0  0  0  0  0  0
   46.5992   46.3224   58.8095 H   0  0  0  0  0  0
   43.3173   42.8293   52.1230 H   0  0  0  0  0  0
   47.6492   40.3457   53.1926 H   0  0  0  0  0  0
   46.5714   40.2346   54.6253 H   0  0  0  0  0  0
   45.6654   38.3452   53.6190 H   0  0  0  0  0  0
   48.2020   39.8423   54.4542 H   0  0  0  0  0  0
   47.0751   38.8571   56.1666 H   0  0  0  0  0  0
   49.7910   38.3380   53.2466 H   0  0  0  0  0  0
   49.0003   36.3505   54.3868 H   0  0  0  0  0  0
   48.1676   37.5175   51.0776 H   0  0  0  0  0  0
   47.8360   41.3900   51.4990 H   0  0  0  0  0  0
   51.2389   42.5309   48.3533 H   0  0  0  0  0  0
   52.5468   41.5221   47.4038 H   0  0  0  0  0  0
   52.0360   37.2290   48.7590 H   0  0  0  0  0  0
  1  2  2  0  0  0
  1  3  1  0  0  0
  1  4  1  0  0  0
  1  8  1  0  0  0
  3 32  1  0  0  0
  4 33  1  0  0  0
  5  6  2  0  0  0
  5  7  1  0  0  0
  5  8  1  0  0  0
  5 12  1  0  0  0
  9 10  2  0  0  0
  9 11  1  0  0  0
  9 12  1  0  0  0
  9 13  1  0  0  0
 11 34  1  0  0  0
 13 14  1  0  0  0
 14 15  1  0  0  0
 14 35  1  0  0  0
 14 36  1  0  0  0
 15 16  1  0  0  0
 15 17  1  0  0  0
 15 37  1  0  0  0
 16 21  1  0  0  0
 17 18  1  0  0  0
 17 19  1  0  0  0
 17 38  1  0  0  0
 18 39  1  0  0  0
 19 20  1  0  0  0
 19 21  1  0  0  0
 19 40  1  0  0  0
 20 41  1  0  0  0
 21 22  1  0  0  0
 21 42  1  0  0  0
 22 23  1  0  0  0
 22 31  1  0  0  0
 23 24  2  0  0  0
 23 43  1  0  0  0
 24 25  1  0  0  0
 25 26  2  0  0  0
 25 31  1  0  0  0
 26 27  1  0  0  0
 26 28  1  0  0  0
 27 44  1  0  0  0
 27 45  1  0  0  0
 28 29  2  0  0  0
 29 30  1  0  0  0
 29 46  1  0  0  0
 30 31  2  0  0  0
M  CHG  1   7  -1
M  END
> <s_m_source_file>
/cbio/jclab/home/rustenburg/PFK/Epik-Ligands/Results/InProgress/ADENOSINE-5'-TRIPHOSPHATE/pH_4.0/ADENOSINE-5'-TRIPHOSPHATE_pH_4.0-before_epik.mol2

> <i_m_source_file_index>
1

> <r_epik_Ionization_Penalty>
  2.3982

> <r_epik_Ionization_Penalty_Charging>
  0.0250

> <r_epik_Ionization_Penalty_Neutral>
  2.3732

> <r_epik_State_Penalty>
  2.9137

> <r_epik_Charging_Adjusted_Penalty>
2.9387072670553

> <i_epik_Tot_Q>
-1

> <i_epik_Tot_abs_Q>
1

> <s_epik_Chemistry_Notes>
This compound contains an acetal/aminal-like group ( X-CH(R)-Y where X, Y are N, S, or O) that may be acid/base labile, releasing an aldehyde.

$$$$
ATP
                    3D
 Structure written by MMmdl.
 46 48  0  0  1  0            999 V2000
   46.1070   45.1820   56.9500 P   0  0  0  0  0  0
   45.7790   46.3300   56.0520 O   0  0  0  0  0  0
   47.3820   44.4970   56.6260 O   0  5  0  0  0  0
   45.9720   45.5300   58.3750 O   0  0  0  0  0  0
   43.9110   43.7400   55.6550 P   0  0  1  0  0  0
   42.9750   42.7220   55.9860 O   0  0  0  0  0  0
   43.6030   44.7670   54.6780 O   0  0  0  0  0  0
   45.0410   44.0150   56.7380 O   0  0  0  0  0  0
   45.2280   42.6690   53.2570 P   0  0  2  0  0  0
   46.3800   43.3960   52.7880 O   0  0  0  0  0  0
   44.1830   42.1900   52.3510 O   0  0  0  0  0  0
   44.9170   42.7160   54.7890 O   0  0  0  0  0  0
   46.1720   41.5680   53.3020 O   0  0  0  0  0  0
   46.6090   40.4220   53.5420 C   0  0  0  0  0  0
   46.5200   38.9890   53.3640 C   0  0  1  0  0  0
   46.7850   38.9080   51.9480 O   0  0  0  0  0  0
   47.8080   38.8740   54.1120 C   0  0  1  0  0  0
   47.7130   38.3570   55.4230 O   0  0  0  0  0  0
   48.7190   38.1160   53.1390 C   0  0  1  0  0  0
   48.6320   36.7370   53.4250 O   0  0  0  0  0  0
   48.1330   38.4090   51.7210 C   0  0  2  0  0  0
   48.8460   39.4640   50.9860 N   0  0  0  0  0  0
   48.6160   40.8420   50.9450 C   0  0  0  0  0  0
   49.4250   41.4890   50.1650 N   0  0  0  0  0  0
   50.2320   40.4700   49.6640 C   0  0  0  0  0  0
   51.3080   40.4660   48.7310 C   0  0  0  0  0  0
   51.7210   41.5680   48.1290 N   0  0  0  0  0  0
   51.9120   39.2740   48.4470 N   0  0  0  0  0  0
   51.4930   38.1510   49.0290 C   0  0  0  0  0  0
   50.4910   38.0160   49.9000 N   0  0  0  0  0  0
   49.8920   39.2530   50.1710 C   0  0  0  0  0  0
   46.5992   46.3224   58.8095 H   0  0  0  0  0  0
   42.9452   45.6055   54.9502 H   0  0  0  0  0  0
   43.3173   42.8293   52.1230 H   0  0  0  0  0  0
   47.6492   40.3457   53.1926 H   0  0  0  0  0  0
   46.5714   40.2346   54.6253 H   0  0  0  0  0  0
   45.6654   38.3452   53.6190 H   0  0  0  0  0  0
   48.2020   39.8423   54.4542 H   0  0  0  0  0  0
   47.0751   38.8571   56.1666 H   0  0  0  0  0  0
   49.7910   38.3380   53.2466 H   0  0  0  0  0  0
   49.0003   36.3505   54.3868 H   0  0  0  0  0  0
   48.1676   37.5175   51.0776 H   0  0  0  0  0  0
   47.8360   41.3900   51.4990 H   0  0  0  0  0  0
   51.2389   42.5309   48.3533 H   0  0  0  0  0  0
   52.5468   41.5221   47.4038 H   0  0  0  0  0  0
   52.0360   37.2290   48.7590 H   0  0  0  0  0  0
  1  2  2  0  0  0
  1  3  1  0  0  0
  1  4  1  0  0  0
  1  8  1  0  0  0
  4 32  1  0  0  0
  5  6  2  0  0  0
  5  7  1  0  0  0
  5  8  1  0  0  0
  5 12  1  0  0  0
  7 33  1  0  0  0
  9 10  2  0  0  0
  9 11  1  0  0  0
  9 12  1  0  0  0
  9 13  1  0  0  0
 11 34  1  0  0  0
 13 14  1  0  0  0
 14 15  1  0  0  0
 14 35  1  0  0  0
 14 36  1  0  0  0
 15 16  1  0  0  0
 15 17  1  0  0  0
 15 37  1  0  0  0
 16 21  1  0  0  0
 17 18  1  0  0  0
 17 19  1  0  0  0
 17 38  1  0  0  0
 18 39  1  0  0  0
 19 20  1  0  0  0
 19 21  1  0  0  0
 19 40  1  0  0  0
 20 41  1  0  0  0
 21 22  1  0  0  0
 21 42  1  0  0  0
 22 23  1  0  0  0
 22 31  1  0  0  0
 23 24  2  0  0  0
 23 43  1  0  0  0
 24 25  1  0  0  0
 25 26  2  0  0  0
 25 31  1  0  0  0
 26 27  1  0  0  0
 26 28  1  0  0  0
 27 44  1  0  0  0
 27 45  1  0  0  0
 28 29  2  0  0  0
 29 30  1  0  0  0
 29 46  1  0  0  0
 30 31  2  0  0  0
M  CHG  1   3  -1
M  END
> <s_m_source_file>
/cbio/jclab/home/rustenburg/PFK/Epik-Ligands/Results/InProgress/ADENOSINE-5'-TRIPHOSPHATE/pH_4.0/ADENOSINE-5'-TRIPHOSPHATE_pH_4.0-before_epik.mol2

> <i_m_source_file_index>
1

> <r_epik_Ionization_Penalty>
  3.2903

> <r_epik_Ionization_Penalty_Charging>
  0.0300

> <r_epik_Ionization_Penalty_Neutral>
  3.2602

> <r_epik_State_Penalty>
  3.1753

> <r_epik_Charging_Adjusted_Penalty>
3.20533504756543

> <i_epik_Tot_Q>
-1

> <i_epik_Tot_abs_Q>
1

> <s_epik_Chemistry_Notes>
This compound contains an acetal/aminal-like group ( X-CH(R)-Y where X, Y are N, S, or O) that may be acid/base labile, releasing an aldehyde.

$$$$
ATP
                    3D
 Structure written by MMmdl.
 47 49  0  0  1  0            999 V2000
   46.1070   45.1820   56.9500 P   0  0  0  0  0  0
   45.7790   46.3300   56.0520 O   0  0  0  0  0  0
   47.3820   44.4970   56.6260 O   0  0  0  0  0  0
   45.9720   45.5300   58.3750 O   0  0  0  0  0  0
   43.9110   43.7400   55.6550 P   0  0  0  0  0  0
   42.9750   42.7220   55.9860 O   0  0  0  0  0  0
   43.6030   44.7670   54.6780 O   0  5  0  0  0  0
   45.0410   44.0150   56.7380 O   0  0  0  0  0  0
   45.2280   42.6690   53.2570 P   0  0  2  0  0  0
   46.3800   43.3960   52.7880 O   0  0  0  0  0  0
   44.1830   42.1900   52.3510 O   0  0  0  0  0  0
   44.9170   42.7160   54.7890 O   0  0  0  0  0  0
   46.1720   41.5680   53.3020 O   0  0  0  0  0  0
   46.6090   40.4220   53.5420 C   0  0  0  0  0  0
   46.5200   38.9890   53.3640 C   0  0  1  0  0  0
   46.7850   38.9080   51.9480 O   0  0  0  0  0  0
   47.8080   38.8740   54.1120 C   0  0  1  0  0  0
   47.7130   38.3570   55.4230 O   0  0  0  0  0  0
   48.7190   38.1160   53.1390 C   0  0  1  0  0  0
   48.6320   36.7370   53.4250 O   0  0  0  0  0  0
   48.1330   38.4090   51.7210 C   0  0  2  0  0  0
   48.8460   39.4640   50.9860 N   0  0  0  0  0  0
   48.6160   40.8420   50.9450 C   0  0  0  0  0  0
   49.4250   41.4890   50.1650 N   0  0  0  0  0  0
   50.2320   40.4700   49.6640 C   0  0  0  0  0  0
   51.3080   40.4660   48.7310 C   0  0  0  0  0  0
   51.7210   41.5680   48.1290 N   0  0  0  0  0  0
   51.9120   39.2740   48.4470 N   0  3  0  0  0  0
   51.4930   38.1510   49.0290 C   0  0  0  0  0  0
   50.4910   38.0160   49.9000 N   0  0  0  0  0  0
   49.8920   39.2530   50.1710 C   0  0  0  0  0  0
   48.3320   45.0490   56.6795 H   0  0  0  0  0  0
   46.5992   46.3224   58.8095 H   0  0  0  0  0  0
   43.3173   42.8293   52.1230 H   0  0  0  0  0  0
   47.6492   40.3457   53.1926 H   0  0  0  0  0  0
   46.5714   40.2346   54.6253 H   0  0  0  0  0  0
   45.6654   38.3452   53.6190 H   0  0  0  0  0  0
   48.2020   39.8423   54.4542 H   0  0  0  0  0  0
   47.0751   38.8571   56.1666 H   0  0  0  0  0  0
   49.7910   38.3380   53.2466 H   0  0  0  0  0  0
   49.0003   36.3505   54.3868 H   0  0  0  0  0  0
   48.1676   37.5175   51.0776 H   0  0  0  0  0  0
   47.8360   41.3900   51.4990 H   0  0  0  0  0  0
   51.2389   42.5309   48.3533 H   0  0  0  0  0  0
   52.5468   41.5221   47.4038 H   0  0  0  0  0  0
   52.0360   37.2290   48.7590 H   0  0  0  0  0  0
   52.7492   39.2376   47.7344 H   0  0  0  0  0  0
  1  2  2  0  0  0
  1  3  1  0  0  0
  1  4  1  0  0  0
  1  8  1  0  0  0
  3 32  1  0  0  0
  4 33  1  0  0  0
  5  6  2  0  0  0
  5  7  1  0  0  0
  5  8  1  0  0  0
  5 12  1  0  0  0
  9 10  2  0  0  0
  9 11  1  0  0  0
  9 12  1  0  0  0
  9 13  1  0  0  0
 11 34  1  0  0  0
 13 14  1  0  0  0
 14 15  1  0  0  0
 14 35  1  0  0  0
 14 36  1  0  0  0
 15 16  1  0  0  0
 15 17  1  0  0  0
 15 37  1  0  0  0
 16 21  1  0  0  0
 17 18  1  0  0  0
 17 19  1  0  0  0
 17 38  1  0  0  0
 18 39  1  0  0  0
 19 20  1  0  0  0
 19 21  1  0  0  0
 19 40  1  0  0  0
 20 41  1  0  0  0
 21 22  1  0  0  0
 21 42  1  0  0  0
 22 23  1  0  0  0
 22 31  1  0  0  0
 23 24  2  0  0  0
 23 43  1  0  0  0
 24 25  1  0  0  0
 25 26  2  0  0  0
 25 31  1  0  0  0
 26 27  1  0  0  0
 26 28  1  0  0  0
 27 44  1  0  0  0
 27 45  1  0  0  0
 28 29  2  0  0  0
 28 47  1  0  0  0
 29 30  1  0  0  0
 29 46  1  0  0  0
 30 31  2  0  0  0
M  CHG  2   7  -1  28   1
M  END
> <s_m_source_file>
/cbio/jclab/home/rustenburg/PFK/Epik-Ligands/Results/InProgress/ADENOSINE-5'-TRIPHOSPHATE/pH_4.0/ADENOSINE-5'-TRIPHOSPHATE_pH_4.0-before_epik.mol2

> <i_m_source_file_index>
1

> <r_lp_tautomer_probability>
0.978911883040575

> <r_epik_Ionization_Penalty>
  2.6174

> <r_epik_Ionization_Penalty_Charging>
  0.5663

> <r_epik_Ionization_Penalty_Neutral>
  2.0511

> <r_epik_State_Penalty>
  3.4223

> <r_epik_Charging_Adjusted_Penalty>
3.98861025558474

> <i_epik_Tot_Q>
0

> <i_epik_Tot_abs_Q>
2

> <s_epik_Chemistry_Notes>
This compound contains an acetal/aminal-like group ( X-CH(R)-Y where X, Y are N, S, or O) that may be acid/base labile, releasing an aldehyde.

$$$$
ATP
                    3D
 Structure written by MMmdl.
 46 48  0  0  1  0            999 V2000
   46.1070   45.1820   56.9500 P   0  0  0  0  0  0
   45.7790   46.3300   56.0520 O   0  0  0  0  0  0
   47.3820   44.4970   56.6260 O   0  5  0  0  0  0
   45.9720   45.5300   58.3750 O   0  0  0  0  0  0
   43.9110   43.7400   55.6550 P   0  0  0  0  0  0
   42.9750   42.7220   55.9860 O   0  0  0  0  0  0
   43.6030   44.7670   54.6780 O   0  5  0  0  0  0
   45.0410   44.0150   56.7380 O   0  0  0  0  0  0
   45.2280   42.6690   53.2570 P   0  0  2  0  0  0
   46.3800   43.3960   52.7880 O   0  0  0  0  0  0
   44.1830   42.1900   52.3510 O   0  0  0  0  0  0
   44.9170   42.7160   54.7890 O   0  0  0  0  0  0
   46.1720   41.5680   53.3020 O   0  0  0  0  0  0
   46.6090   40.4220   53.5420 C   0  0  0  0  0  0
   46.5200   38.9890   53.3640 C   0  0  1  0  0  0
   46.7850   38.9080   51.9480 O   0  0  0  0  0  0
   47.8080   38.8740   54.1120 C   0  0  1  0  0  0
   47.7130   38.3570   55.4230 O   0  0  0  0  0  0
   48.7190   38.1160   53.1390 C   0  0  1  0  0  0
   48.6320   36.7370   53.4250 O   0  0  0  0  0  0
   48.1330   38.4090   51.7210 C   0  0  2  0  0  0
   48.8460   39.4640   50.9860 N   0  0  0  0  0  0
   48.6160   40.8420   50.9450 C   0  0  0  0  0  0
   49.4250   41.4890   50.1650 N   0  3  0  0  0  0
   50.2320   40.4700   49.6640 C   0  0  0  0  0  0
   51.3080   40.4660   48.7310 C   0  0  0  0  0  0
   51.7210   41.5680   48.1290 N   0  0  0  0  0  0
   51.9120   39.2740   48.4470 N   0  0  0  0  0  0
   51.4930   38.1510   49.0290 C   0  0  0  0  0  0
   50.4910   38.0160   49.9000 N   0  0  0  0  0  0
   49.8920   39.2530   50.1710 C   0  0  0  0  0  0
   46.5992   46.3224   58.8095 H   0  0  0  0  0  0
   43.3173   42.8293   52.1230 H   0  0  0  0  0  0
   47.6492   40.3457   53.1926 H   0  0  0  0  0  0
   46.5714   40.2346   54.6253 H   0  0  0  0  0  0
   45.6654   38.3452   53.6190 H   0  0  0  0  0  0
   48.2020   39.8423   54.4542 H   0  0  0  0  0  0
   47.0751   38.8571   56.1666 H   0  0  0  0  0  0
   49.7910   38.3380   53.2466 H   0  0  0  0  0  0
   49.0003   36.3505   54.3868 H   0  0  0  0  0  0
   48.1676   37.5175   51.0776 H   0  0  0  0  0  0
   47.8360   41.3900   51.4990 H   0  0  0  0  0  0
   51.2389   42.5309   48.3533 H   0  0  0  0  0  0
   52.5468   41.5221   47.4038 H   0  0  0  0  0  0
   52.0360   37.2290   48.7590 H   0  0  0  0  0  0
   49.3328   42.5801   50.0600 H   0  0  0  0  0  0
  1  2  2  0  0  0
  1  3  1  0  0  0
  1  4  1  0  0  0
  1  8  1  0  0  0
  4 32  1  0  0  0
  5  6  2  0  0  0
  5  7  1  0  0  0
  5  8  1  0  0  0
  5 12  1  0  0  0
  9 10  2  0  0  0
  9 11  1  0  0  0
  9 12  1  0  0  0
  9 13  1  0  0  0
 11 33  1  0  0  0
 13 14  1  0  0  0
 14 15  1  0  0  0
 14 34  1  0  0  0
 14 35  1  0  0  0
 15 16  1  0  0  0
 15 17  1  0  0  0
 15 36  1  0  0  0
 16 21  1  0  0  0
 17 18  1  0  0  0
 17 19  1  0  0  0
 17 37  1  0  0  0
 18 38  1  0  0  0
 19 20  1  0  0  0
 19 21  1  0  0  0
 19 39  1  0  0  0
 20 40  1  0  0  0
 21 22  1  0  0  0
 21 41  1  0  0  0
 22 23  1  0  0  0
 22 31  1  0  0  0
 23 24  2  0  0  0
 23 42  1  0  0  0
 24 25  1  0  0  0
 24 46  1  0  0  0
 25 26  2  0  0  0
 25 31  1  0  0  0
 26 27  1  0  0  0
 26 28  1  0  0  0
 27 43  1  0  0  0
 27 44  1  0  0  0
 28 29  2  0  0  0
 29 30  1  0  0  0
 29 45  1  0  0  0
 30 31  2  0  0  0
M  CHG  3   3  -1   7  -1  24   1
M  END
> <s_m_source_file>
/cbio/jclab/home/rustenburg/PFK/Epik-Ligands/Results/InProgress/ADENOSINE-5'-TRIPHOSPHATE/pH_4.0/ADENOSINE-5'-TRIPHOSPHATE_pH_4.0-before_epik.mol2

> <i_m_source_file_index>
1

> <r_epik_Ionization_Penalty>
  2.8474

> <r_epik_Ionization_Penalty_Charging>
  2.0200

> <r_epik_Ionization_Penalty_Neutral>
  0.8274

> <r_epik_State_Penalty>
  3.5098

> <r_epik_Charging_Adjusted_Penalty>
5.52979937305183

> <i_epik_Tot_Q>
-1

> <i_epik_Tot_abs_Q>
3

> <s_epik_Chemistry_Notes>
This compound contains an acetal/aminal-like group ( X-CH(R)-Y where X, Y are N, S, or O) that may be acid/base labile, releasing an aldehyde.

$$$$
ATP
                    3D
 Structure written by MMmdl.
 46 48  0  0  1  0            999 V2000
   46.1070   45.1820   56.9500 P   0  0  0  0  0  0
   45.7790   46.3300   56.0520 O   0  0  0  0  0  0
   47.3820   44.4970   56.6260 O   0  0  0  0  0  0
   45.9720   45.5300   58.3750 O   0  0  0  0  0  0
   43.9110   43.7400   55.6550 P   0  0  1  0  0  0
   42.9750   42.7220   55.9860 O   0  0  0  0  0  0
   43.6030   44.7670   54.6780 O   0  0  0  0  0  0
   45.0410   44.0150   56.7380 O   0  0  0  0  0  0
   45.2280   42.6690   53.2570 P   0  0  0  0  0  0
   46.3800   43.3960   52.7880 O   0  0  0  0  0  0
   44.1830   42.1900   52.3510 O   0  5  0  0  0  0
   44.9170   42.7160   54.7890 O   0  0  0  0  0  0
   46.1720   41.5680   53.3020 O   0  0  0  0  0  0
   46.6090   40.4220   53.5420 C   0  0  0  0  0  0
   46.5200   38.9890   53.3640 C   0  0  1  0  0  0
   46.7850   38.9080   51.9480 O   0  0  0  0  0  0
   47.8080   38.8740   54.1120 C   0  0  1  0  0  0
   47.7130   38.3570   55.4230 O   0  0  0  0  0  0
   48.7190   38.1160   53.1390 C   0  0  1  0  0  0
   48.6320   36.7370   53.4250 O   0  0  0  0  0  0
   48.1330   38.4090   51.7210 C   0  0  2  0  0  0
   48.8460   39.4640   50.9860 N   0  0  0  0  0  0
   48.6160   40.8420   50.9450 C   0  0  0  0  0  0
   49.4250   41.4890   50.1650 N   0  0  0  0  0  0
   50.2320   40.4700   49.6640 C   0  0  0  0  0  0
   51.3080   40.4660   48.7310 C   0  0  0  0  0  0
   51.7210   41.5680   48.1290 N   0  0  0  0  0  0
   51.9120   39.2740   48.4470 N   0  0  0  0  0  0
   51.4930   38.1510   49.0290 C   0  0  0  0  0  0
   50.4910   38.0160   49.9000 N   0  0  0  0  0  0
   49.8920   39.2530   50.1710 C   0  0  0  0  0  0
   48.3320   45.0490   56.6795 H   0  0  0  0  0  0
   46.5992   46.3224   58.8095 H   0  0  0  0  0  0
   42.9452   45.6055   54.9502 H   0  0  0  0  0  0
   47.6492   40.3457   53.1926 H   0  0  0  0  0  0
   46.5714   40.2346   54.6253 H   0  0  0  0  0  0
   45.6654   38.3452   53.6190 H   0  0  0  0  0  0
   48.2020   39.8423   54.4542 H   0  0  0  0  0  0
   47.0751   38.8571   56.1666 H   0  0  0  0  0  0
   49.7910   38.3380   53.2466 H   0  0  0  0  0  0
   49.0003   36.3505   54.3868 H   0  0  0  0  0  0
   48.1676   37.5175   51.0776 H   0  0  0  0  0  0
   47.8360   41.3900   51.4990 H   0  0  0  0  0  0
   51.2389   42.5309   48.3533 H   0  0  0  0  0  0
   52.5468   41.5221   47.4038 H   0  0  0  0  0  0
   52.0360   37.2290   48.7590 H   0  0  0  0  0  0
  1  2  2  0  0  0
  1  3  1  0  0  0
  1  4  1  0  0  0
  1  8  1  0  0  0
  3 32  1  0  0  0
  4 33  1  0  0  0
  5  6  2  0  0  0
  5  7  1  0  0  0
  5  8  1  0  0  0
  5 12  1  0  0  0
  7 34  1  0  0  0
  9 10  2  0  0  0
  9 11  1  0  0  0
  9 12  1  0  0  0
  9 13  1  0  0  0
 13 14  1  0  0  0
 14 15  1  0  0  0
 14 35  1  0  0  0
 14 36  1  0  0  0
 15 16  1  0  0  0
 15 17  1  0  0  0
 15 37  1  0  0  0
 16 21  1  0  0  0
 17 18  1  0  0  0
 17 19  1  0  0  0
 17 38  1  0  0  0
 18 39  1  0  0  0
 19 20  1  0  0  0
 19 21  1  0  0  0
 19 40  1  0  0  0
 20 41  1  0  0  0
 21 22  1  0  0  0
 21 42  1  0  0  0
 22 23  1  0  0  0
 22 31  1  0  0  0
 23 24  2  0  0  0
 23 43  1  0  0  0
 24 25  1  0  0  0
 25 26  2  0  0  0
 25 31  1  0  0  0
 26 27  1  0  0  0
 26 28  1  0  0  0
 27 44  1  0  0  0
 27 45  1  0  0  0
 28 29  2  0  0  0
 29 30  1  0  0  0
 29 46  1  0  0  0
 30 31  2  0  0  0
M  CHG  1  11  -1
M  END
> <s_m_source_file>
/cbio/jclab/home/rustenburg/PFK/Epik-Ligands/Results/InProgress/ADENOSINE-5'-TRIPHOSPHATE/pH_4.0/ADENOSINE-5'-TRIPHOSPHATE_pH_4.0-before_epik.mol2

> <i_m_source_file_index>
1

> <r_epik_Ionization_Penalty>
  3.4022

> <r_epik_Ionization_Penalty_Charging>
  0.0621

> <r_epik_Ionization_Penalty_Neutral>
  3.3401

> <r_epik_State_Penalty>
  3.5708

> <r_epik_Charging_Adjusted_Penalty>
3.6329404730833

> <i_epik_Tot_Q>
-1

> <i_epik_Tot_abs_Q>
1

> <s_epik_Chemistry_Notes>
This compound contains an acetal/aminal-like group ( X-CH(R)-Y where X, Y are N, S, or O) that may be acid/base labile, releasing an aldehyde.

$$$$
ATP
                    3D
 Structure written by MMmdl.
 47 49  0  0  1  0            999 V2000
   46.1070   45.1820   56.9500 P   0  0  0  0  0  0
   45.7790   46.3300   56.0520 O   0  0  0  0  0  0
   47.3820   44.4970   56.6260 O   0  5  0  0  0  0
   45.9720   45.5300   58.3750 O   0  0  0  0  0  0
   43.9110   43.7400   55.6550 P   0  0  1  0  0  0
   42.9750   42.7220   55.9860 O   0  0  0  0  0  0
   43.6030   44.7670   54.6780 O   0  0  0  0  0  0
   45.0410   44.0150   56.7380 O   0  0  0  0  0  0
   45.2280   42.6690   53.2570 P   0  0  2  0  0  0
   46.3800   43.3960   52.7880 O   0  0  0  0  0  0
   44.1830   42.1900   52.3510 O   0  0  0  0  0  0
   44.9170   42.7160   54.7890 O   0  0  0  0  0  0
   46.1720   41.5680   53.3020 O   0  0  0  0  0  0
   46.6090   40.4220   53.5420 C   0  0  0  0  0  0
   46.5200   38.9890   53.3640 C   0  0  1  0  0  0
   46.7850   38.9080   51.9480 O   0  0  0  0  0  0
   47.8080   38.8740   54.1120 C   0  0  1  0  0  0
   47.7130   38.3570   55.4230 O   0  0  0  0  0  0
   48.7190   38.1160   53.1390 C   0  0  1  0  0  0
   48.6320   36.7370   53.4250 O   0  0  0  0  0  0
   48.1330   38.4090   51.7210 C   0  0  2  0  0  0
   48.8460   39.4640   50.9860 N   0  0  0  0  0  0
   48.6160   40.8420   50.9450 C   0  0  0  0  0  0
   49.4250   41.4890   50.1650 N   0  0  0  0  0  0
   50.2320   40.4700   49.6640 C   0  0  0  0  0  0
   51.3080   40.4660   48.7310 C   0  0  0  0  0  0
   51.7210   41.5680   48.1290 N   0  0  0  0  0  0
   51.9120   39.2740   48.4470 N   0  3  0  0  0  0
   51.4930   38.1510   49.0290 C   0  0  0  0  0  0
   50.4910   38.0160   49.9000 N   0  0  0  0  0  0
   49.8920   39.2530   50.1710 C   0  0  0  0  0  0
   46.5992   46.3224   58.8095 H   0  0  0  0  0  0
   42.9452   45.6055   54.9502 H   0  0  0  0  0  0
   43.3173   42.8293   52.1230 H   0  0  0  0  0  0
   47.6492   40.3457   53.1926 H   0  0  0  0  0  0
   46.5714   40.2346   54.6253 H   0  0  0  0  0  0
   45.6654   38.3452   53.6190 H   0  0  0  0  0  0
   48.2020   39.8423   54.4542 H   0  0  0  0  0  0
   47.0751   38.8571   56.1666 H   0  0  0  0  0  0
   49.7910   38.3380   53.2466 H   0  0  0  0  0  0
   49.0003   36.3505   54.3868 H   0  0  0  0  0  0
   48.1676   37.5175   51.0776 H   0  0  0  0  0  0
   47.8360   41.3900   51.4990 H   0  0  0  0  0  0
   51.2389   42.5309   48.3533 H   0  0  0  0  0  0
   52.5468   41.5221   47.4038 H   0  0  0  0  0  0
   52.0360   37.2290   48.7590 H   0  0  0  0  0  0
   52.7492   39.2376   47.7344 H   0  0  0  0  0  0
  1  2  2  0  0  0
  1  3  1  0  0  0
  1  4  1  0  0  0
  1  8  1  0  0  0
  4 32  1  0  0  0
  5  6  2  0  0  0
  5  7  1  0  0  0
  5  8  1  0  0  0
  5 12  1  0  0  0
  7 33  1  0  0  0
  9 10  2  0  0  0
  9 11  1  0  0  0
  9 12  1  0  0  0
  9 13  1  0  0  0
 11 34  1  0  0  0
 13 14  1  0  0  0
 14 15  1  0  0  0
 14 35  1  0  0  0
 14 36  1  0  0  0
 15 16  1  0  0  0
 15 17  1  0  0  0
 15 37  1  0  0  0
 16 21  1  0  0  0
 17 18  1  0  0  0
 17 19  1  0  0  0
 17 38  1  0  0  0
 18 39  1  0  0  0
 19 20  1  0  0  0
 19 21  1  0  0  0
 19 40  1  0  0  0
 20 41  1  0  0  0
 21 22  1  0  0  0
 21 42  1  0  0  0
 22 23  1  0  0  0
 22 31  1  0  0  0
 23 24  2  0  0  0
 23 43  1  0  0  0
 24 25  1  0  0  0
 25 26  2  0  0  0
 25 31  1  0  0  0
 26 27  1  0  0  0
 26 28  1  0  0  0
 27 44  1  0  0  0
 27 45  1  0  0  0
 28 29  2  0  0  0
 28 47  1  0  0  0
 29 30  1  0  0  0
 29 46  1  0  0  0
 30 31  2  0  0  0
M  CHG  2   3  -1  28   1
M  END
> <s_m_source_file>
/cbio/jclab/home/rustenburg/PFK/Epik-Ligands/Results/InProgress/ADENOSINE-5'-TRIPHOSPHATE/pH_4.0/ADENOSINE-5'-TRIPHOSPHATE_pH_4.0-before_epik.mol2

> <i_m_source_file_index>
1

> <r_epik_Ionization_Penalty>
  3.5095

> <r_epik_Ionization_Penalty_Charging>
  0.5713

> <r_epik_Ionization_Penalty_Neutral>
  2.9382

> <r_epik_State_Penalty>
  3.6460

> <r_epik_Charging_Adjusted_Penalty>
4.21729014569909

> <i_epik_Tot_Q>
0

> <i_epik_Tot_abs_Q>
2

> <s_epik_Chemistry_Notes>
This compound contains an acetal/aminal-like group ( X-CH(R)-Y where X, Y are N, S, or O) that may be acid/base labile, releasing an aldehyde.

$$$$
ATP
                    3D
 Structure written by MMmdl.
 46 48  0  0  1  0            999 V2000
   46.1070   45.1820   56.9500 P   0  0  0  0  0  0
   45.7790   46.3300   56.0520 O   0  0  0  0  0  0
   47.3820   44.4970   56.6260 O   0  5  0  0  0  0
   45.9720   45.5300   58.3750 O   0  0  0  0  0  0
   43.9110   43.7400   55.6550 P   0  0  1  0  0  0
   42.9750   42.7220   55.9860 O   0  0  0  0  0  0
   43.6030   44.7670   54.6780 O   0  0  0  0  0  0
   45.0410   44.0150   56.7380 O   0  0  0  0  0  0
   45.2280   42.6690   53.2570 P   0  0  0  0  0  0
   46.3800   43.3960   52.7880 O   0  0  0  0  0  0
   44.1830   42.1900   52.3510 O   0  5  0  0  0  0
   44.9170   42.7160   54.7890 O   0  0  0  0  0  0
   46.1720   41.5680   53.3020 O   0  0  0  0  0  0
   46.6090   40.4220   53.5420 C   0  0  0  0  0  0
   46.5200   38.9890   53.3640 C   0  0  1  0  0  0
   46.7850   38.9080   51.9480 O   0  0  0  0  0  0
   47.8080   38.8740   54.1120 C   0  0  1  0  0  0
   47.7130   38.3570   55.4230 O   0  0  0  0  0  0
   48.7190   38.1160   53.1390 C   0  0  1  0  0  0
   48.6320   36.7370   53.4250 O   0  0  0  0  0  0
   48.1330   38.4090   51.7210 C   0  0  2  0  0  0
   48.8460   39.4640   50.9860 N   0  0  0  0  0  0
   48.6160   40.8420   50.9450 C   0  0  0  0  0  0
   49.4250   41.4890   50.1650 N   0  3  0  0  0  0
   50.2320   40.4700   49.6640 C   0  0  0  0  0  0
   51.3080   40.4660   48.7310 C   0  0  0  0  0  0
   51.7210   41.5680   48.1290 N   0  0  0  0  0  0
   51.9120   39.2740   48.4470 N   0  0  0  0  0  0
   51.4930   38.1510   49.0290 C   0  0  0  0  0  0
   50.4910   38.0160   49.9000 N   0  0  0  0  0  0
   49.8920   39.2530   50.1710 C   0  0  0  0  0  0
   46.5992   46.3224   58.8095 H   0  0  0  0  0  0
   42.9452   45.6055   54.9502 H   0  0  0  0  0  0
   47.6492   40.3457   53.1926 H   0  0  0  0  0  0
   46.5714   40.2346   54.6253 H   0  0  0  0  0  0
   45.6654   38.3452   53.6190 H   0  0  0  0  0  0
   48.2020   39.8423   54.4542 H   0  0  0  0  0  0
   47.0751   38.8571   56.1666 H   0  0  0  0  0  0
   49.7910   38.3380   53.2466 H   0  0  0  0  0  0
   49.0003   36.3505   54.3868 H   0  0  0  0  0  0
   48.1676   37.5175   51.0776 H   0  0  0  0  0  0
   47.8360   41.3900   51.4990 H   0  0  0  0  0  0
   51.2389   42.5309   48.3533 H   0  0  0  0  0  0
   52.5468   41.5221   47.4038 H   0  0  0  0  0  0
   52.0360   37.2290   48.7590 H   0  0  0  0  0  0
   49.3328   42.5801   50.0600 H   0  0  0  0  0  0
  1  2  2  0  0  0
  1  3  1  0  0  0
  1  4  1  0  0  0
  1  8  1  0  0  0
  4 32  1  0  0  0
  5  6  2  0  0  0
  5  7  1  0  0  0
  5  8  1  0  0  0
  5 12  1  0  0  0
  7 33  1  0  0  0
  9 10  2  0  0  0
  9 11  1  0  0  0
  9 12  1  0  0  0
  9 13  1  0  0  0
 13 14  1  0  0  0
 14 15  1  0  0  0
 14 34  1  0  0  0
 14 35  1  0  0  0
 15 16  1  0  0  0
 15 17  1  0  0  0
 15 36  1  0  0  0
 16 21  1  0  0  0
 17 18  1  0  0  0
 17 19  1  0  0  0
 17 37  1  0  0  0
 18 38  1  0  0  0
 19 20  1  0  0  0
 19 21  1  0  0  0
 19 39  1  0  0  0
 20 40  1  0  0  0
 21 22  1  0  0  0
 21 41  1  0  0  0
 22 23  1  0  0  0
 22 31  1  0  0  0
 23 24  2  0  0  0
 23 42  1  0  0  0
 24 25  1  0  0  0
 24 46  1  0  0  0
 25 26  2  0  0  0
 25 31  1  0  0  0
 26 27  1  0  0  0
 26 28  1  0  0  0
 27 43  1  0  0  0
 27 44  1  0  0  0
 28 29  2  0  0  0
 29 30  1  0  0  0
 29 45  1  0  0  0
 30 31  2  0  0  0
M  CHG  3   3  -1  11  -1  24   1
M  END
> <s_m_source_file>
/cbio/jclab/home/rustenburg/PFK/Epik-Ligands/Results/InProgress/ADENOSINE-5'-TRIPHOSPHATE/pH_4.0/ADENOSINE-5'-TRIPHOSPHATE_pH_4.0-before_epik.mol2

> <i_m_source_file_index>
1

> <r_epik_Ionization_Penalty>
  3.0435

> <r_epik_Ionization_Penalty_Charging>
  1.9941

> <r_epik_Ionization_Penalty_Neutral>
  1.0494

> <r_epik_State_Penalty>
  3.7179

> <r_epik_Charging_Adjusted_Penalty>
5.71201873942399

> <i_epik_Tot_Q>
-1

> <i_epik_Tot_abs_Q>
3

> <s_epik_Chemistry_Notes>
This compound contains an acetal/aminal-like group ( X-CH(R)-Y where X, Y are N, S, or O) that may be acid/base labile, releasing an aldehyde.

$$$$
ATP
                    3D
 Structure written by MMmdl.
 44 46  0  0  1  0            999 V2000
   46.1070   45.1820   56.9500 P   0  0  0  0  0  0
   45.7790   46.3300   56.0520 O   0  0  0  0  0  0
   47.3820   44.4970   56.6260 O   0  5  0  0  0  0
   45.9720   45.5300   58.3750 O   0  5  0  0  0  0
   43.9110   43.7400   55.6550 P   0  0  1  0  0  0
   42.9750   42.7220   55.9860 O   0  0  0  0  0  0
   43.6030   44.7670   54.6780 O   0  0  0  0  0  0
   45.0410   44.0150   56.7380 O   0  0  0  0  0  0
   45.2280   42.6690   53.2570 P   0  0  0  0  0  0
   46.3800   43.3960   52.7880 O   0  0  0  0  0  0
   44.1830   42.1900   52.3510 O   0  5  0  0  0  0
   44.9170   42.7160   54.7890 O   0  0  0  0  0  0
   46.1720   41.5680   53.3020 O   0  0  0  0  0  0
   46.6090   40.4220   53.5420 C   0  0  0  0  0  0
   46.5200   38.9890   53.3640 C   0  0  1  0  0  0
   46.7850   38.9080   51.9480 O   0  0  0  0  0  0
   47.8080   38.8740   54.1120 C   0  0  1  0  0  0
   47.7130   38.3570   55.4230 O   0  0  0  0  0  0
   48.7190   38.1160   53.1390 C   0  0  1  0  0  0
   48.6320   36.7370   53.4250 O   0  0  0  0  0  0
   48.1330   38.4090   51.7210 C   0  0  2  0  0  0
   48.8460   39.4640   50.9860 N   0  0  0  0  0  0
   48.6160   40.8420   50.9450 C   0  0  0  0  0  0
   49.4250   41.4890   50.1650 N   0  0  0  0  0  0
   50.2320   40.4700   49.6640 C   0  0  0  0  0  0
   51.3080   40.4660   48.7310 C   0  0  0  0  0  0
   51.7210   41.5680   48.1290 N   0  0  0  0  0  0
   51.9120   39.2740   48.4470 N   0  0  0  0  0  0
   51.4930   38.1510   49.0290 C   0  0  0  0  0  0
   50.4910   38.0160   49.9000 N   0  0  0  0  0  0
   49.8920   39.2530   50.1710 C   0  0  0  0  0  0
   42.9452   45.6055   54.9502 H   0  0  0  0  0  0
   47.6492   40.3457   53.1926 H   0  0  0  0  0  0
   46.5714   40.2346   54.6253 H   0  0  0  0  0  0
   45.6654   38.3452   53.6190 H   0  0  0  0  0  0
   48.2020   39.8423   54.4542 H   0  0  0  0  0  0
   47.0751   38.8571   56.1666 H   0  0  0  0  0  0
   49.7910   38.3380   53.2466 H   0  0  0  0  0  0
   49.0003   36.3505   54.3868 H   0  0  0  0  0  0
   48.1676   37.5175   51.0776 H   0  0  0  0  0  0
   47.8360   41.3900   51.4990 H   0  0  0  0  0  0
   51.2389   42.5309   48.3533 H   0  0  0  0  0  0
   52.5468   41.5221   47.4038 H   0  0  0  0  0  0
   52.0360   37.2290   48.7590 H   0  0  0  0  0  0
  1  2  2  0  0  0
  1  3  1  0  0  0
  1  4  1  0  0  0
  1  8  1  0  0  0
  5  6  2  0  0  0
  5  7  1  0  0  0
  5  8  1  0  0  0
  5 12  1  0  0  0
  7 32  1  0  0  0
  9 10  2  0  0  0
  9 11  1  0  0  0
  9 12  1  0  0  0
  9 13  1  0  0  0
 13 14  1  0  0  0
 14 15  1  0  0  0
 14 33  1  0  0  0
 14 34  1  0  0  0
 15 16  1  0  0  0
 15 17  1  0  0  0
 15 35  1  0  0  0
 16 21  1  0  0  0
 17 18  1  0  0  0
 17 19  1  0  0  0
 17 36  1  0  0  0
 18 37  1  0  0  0
 19 20  1  0  0  0
 19 21  1  0  0  0
 19 38  1  0  0  0
 20 39  1  0  0  0
 21 22  1  0  0  0
 21 40  1  0  0  0
 22 23  1  0  0  0
 22 31  1  0  0  0
 23 24  2  0  0  0
 23 41  1  0  0  0
 24 25  1  0  0  0
 25 26  2  0  0  0
 25 31  1  0  0  0
 26 27  1  0  0  0
 26 28  1  0  0  0
 27 42  1  0  0  0
 27 43  1  0  0  0
 28 29  2  0  0  0
 29 30  1  0  0  0
 29 44  1  0  0  0
 30 31  2  0  0  0
M  CHG  3   3  -1   4  -1  11  -1
M  END
> <s_m_source_file>
/cbio/jclab/home/rustenburg/PFK/Epik-Ligands/Results/InProgress/ADENOSINE-5'-TRIPHOSPHATE/pH_4.0/ADENOSINE-5'-TRIPHOSPHATE_pH_4.0-before_epik.mol2

> <i_m_source_file_index>
1

> <r_epik_Ionization_Penalty>
  2.8461

> <r_epik_Ionization_Penalty_Charging>
  2.2599

> <r_epik_Ionization_Penalty_Neutral>
  0.5862

> <r_epik_State_Penalty>
  4.0104

> <r_epik_Charging_Adjusted_Penalty>
6.27033893323064

> <i_epik_Tot_Q>
-3

> <i_epik_Tot_abs_Q>
3

> <s_epik_Chemistry_Notes>
This compound contains an acetal/aminal-like group ( X-CH(R)-Y where X, Y are N, S, or O) that may be acid/base labile, releasing an aldehyde.

$$$$
ATP
                    3D
 Structure written by MMmdl.
 46 48  0  0  1  0            999 V2000
   46.1070   45.1820   56.9500 P   0  0  0  0  0  0
   45.7790   46.3300   56.0520 O   0  0  0  0  0  0
   47.3820   44.4970   56.6260 O   0  0  0  0  0  0
   45.9720   45.5300   58.3750 O   0  0  0  0  0  0
   43.9110   43.7400   55.6550 P   0  0  0  0  0  0
   42.9750   42.7220   55.9860 O   0  0  0  0  0  0
   43.6030   44.7670   54.6780 O   0  5  0  0  0  0
   45.0410   44.0150   56.7380 O   0  0  0  0  0  0
   45.2280   42.6690   53.2570 P   0  0  0  0  0  0
   46.3800   43.3960   52.7880 O   0  0  0  0  0  0
   44.1830   42.1900   52.3510 O   0  5  0  0  0  0
   44.9170   42.7160   54.7890 O   0  0  0  0  0  0
   46.1720   41.5680   53.3020 O   0  0  0  0  0  0
   46.6090   40.4220   53.5420 C   0  0  0  0  0  0
   46.5200   38.9890   53.3640 C   0  0  1  0  0  0
   46.7850   38.9080   51.9480 O   0  0  0  0  0  0
   47.8080   38.8740   54.1120 C   0  0  1  0  0  0
   47.7130   38.3570   55.4230 O   0  0  0  0  0  0
   48.7190   38.1160   53.1390 C   0  0  1  0  0  0
   48.6320   36.7370   53.4250 O   0  0  0  0  0  0
   48.1330   38.4090   51.7210 C   0  0  2  0  0  0
   48.8460   39.4640   50.9860 N   0  0  0  0  0  0
   48.6160   40.8420   50.9450 C   0  0  0  0  0  0
   49.4250   41.4890   50.1650 N   0  3  0  0  0  0
   50.2320   40.4700   49.6640 C   0  0  0  0  0  0
   51.3080   40.4660   48.7310 C   0  0  0  0  0  0
   51.7210   41.5680   48.1290 N   0  0  0  0  0  0
   51.9120   39.2740   48.4470 N   0  0  0  0  0  0
   51.4930   38.1510   49.0290 C   0  0  0  0  0  0
   50.4910   38.0160   49.9000 N   0  0  0  0  0  0
   49.8920   39.2530   50.1710 C   0  0  0  0  0  0
   48.3320   45.0490   56.6795 H   0  0  0  0  0  0
   46.5992   46.3224   58.8095 H   0  0  0  0  0  0
   47.6492   40.3457   53.1926 H   0  0  0  0  0  0
   46.5714   40.2346   54.6253 H   0  0  0  0  0  0
   45.6654   38.3452   53.6190 H   0  0  0  0  0  0
   48.2020   39.8423   54.4542 H   0  0  0  0  0  0
   47.0751   38.8571   56.1666 H   0  0  0  0  0  0
   49.7910   38.3380   53.2466 H   0  0  0  0  0  0
   49.0003   36.3505   54.3868 H   0  0  0  0  0  0
   48.1676   37.5175   51.0776 H   0  0  0  0  0  0
   47.8360   41.3900   51.4990 H   0  0  0  0  0  0
   51.2389   42.5309   48.3533 H   0  0  0  0  0  0
   52.5468   41.5221   47.4038 H   0  0  0  0  0  0
   52.0360   37.2290   48.7590 H   0  0  0  0  0  0
   49.3328   42.5801   50.0600 H   0  0  0  0  0  0
  1  2  2  0  0  0
  1  3  1  0  0  0
  1  4  1  0  0  0
  1  8  1  0  0  0
  3 32  1  0  0  0
  4 33  1  0  0  0
  5  6  2  0  0  0
  5  7  1  0  0  0
  5  8  1  0  0  0
  5 12  1  0  0  0
  9 10  2  0  0  0
  9 11  1  0  0  0
  9 12  1  0  0  0
  9 13  1  0  0  0
 13 14  1  0  0  0
 14 15  1  0  0  0
 14 34  1  0  0  0
 14 35  1  0  0  0
 15 16  1  0  0  0
 15 17  1  0  0  0
 15 36  1  0  0  0
 16 21  1  0  0  0
 17 18  1  0  0  0
 17 19  1  0  0  0
 17 37  1  0  0  0
 18 38  1  0  0  0
 19 20  1  0  0  0
 19 21  1  0  0  0
 19 39  1  0  0  0
 20 40  1  0  0  0
 21 22  1  0  0  0
 21 41  1  0  0  0
 22 23  1  0  0  0
 22 31  1  0  0  0
 23 24  2  0  0  0
 23 42  1  0  0  0
 24 25  1  0  0  0
 24 46  1  0  0  0
 25 26  2  0  0  0
 25 31  1  0  0  0
 26 27  1  0  0  0
 26 28  1  0  0  0
 27 43  1  0  0  0
 27 44  1  0  0  0
 28 29  2  0  0  0
 29 30  1  0  0  0
 29 45  1  0  0  0
 30 31  2  0  0  0
M  CHG  3   7  -1  11  -1  24   1
M  END
> <s_m_source_file>
/cbio/jclab/home/rustenburg/PFK/Epik-Ligands/Results/InProgress/ADENOSINE-5'-TRIPHOSPHATE/pH_4.0/ADENOSINE-5'-TRIPHOSPHATE_pH_4.0-before_epik.mol2

> <i_m_source_file_index>
1

> <r_epik_Ionization_Penalty>
  3.2736

> <r_epik_Ionization_Penalty_Charging>
  2.1270

> <r_epik_Ionization_Penalty_Neutral>
  1.1466

> <r_epik_State_Penalty>
  4.0268

> <r_epik_Charging_Adjusted_Penalty>
6.15382909734644

> <i_epik_Tot_Q>
-1

> <i_epik_Tot_abs_Q>
3

> <s_epik_Chemistry_Notes>
This compound contains an acetal/aminal-like group ( X-CH(R)-Y where X, Y are N, S, or O) that may be acid/base labile, releasing an aldehyde.

$$$$
ATP
                    3D
 Structure written by MMmdl.
 47 49  0  0  1  0            999 V2000
   46.1070   45.1820   56.9500 P   0  0  0  0  0  0
   45.7790   46.3300   56.0520 O   0  0  0  0  0  0
   47.3820   44.4970   56.6260 O   0  0  0  0  0  0
   45.9720   45.5300   58.3750 O   0  0  0  0  0  0
   43.9110   43.7400   55.6550 P   0  0  1  0  0  0
   42.9750   42.7220   55.9860 O   0  0  0  0  0  0
   43.6030   44.7670   54.6780 O   0  0  0  0  0  0
   45.0410   44.0150   56.7380 O   0  0  0  0  0  0
   45.2280   42.6690   53.2570 P   0  0  0  0  0  0
   46.3800   43.3960   52.7880 O   0  0  0  0  0  0
   44.1830   42.1900   52.3510 O   0  5  0  0  0  0
   44.9170   42.7160   54.7890 O   0  0  0  0  0  0
   46.1720   41.5680   53.3020 O   0  0  0  0  0  0
   46.6090   40.4220   53.5420 C   0  0  0  0  0  0
   46.5200   38.9890   53.3640 C   0  0  1  0  0  0
   46.7850   38.9080   51.9480 O   0  0  0  0  0  0
   47.8080   38.8740   54.1120 C   0  0  1  0  0  0
   47.7130   38.3570   55.4230 O   0  0  0  0  0  0
   48.7190   38.1160   53.1390 C   0  0  1  0  0  0
   48.6320   36.7370   53.4250 O   0  0  0  0  0  0
   48.1330   38.4090   51.7210 C   0  0  2  0  0  0
   48.8460   39.4640   50.9860 N   0  0  0  0  0  0
   48.6160   40.8420   50.9450 C   0  0  0  0  0  0
   49.4250   41.4890   50.1650 N   0  0  0  0  0  0
   50.2320   40.4700   49.6640 C   0  0  0  0  0  0
   51.3080   40.4660   48.7310 C   0  0  0  0  0  0
   51.7210   41.5680   48.1290 N   0  0  0  0  0  0
   51.9120   39.2740   48.4470 N   0  3  0  0  0  0
   51.4930   38.1510   49.0290 C   0  0  0  0  0  0
   50.4910   38.0160   49.9000 N   0  0  0  0  0  0
   49.8920   39.2530   50.1710 C   0  0  0  0  0  0
   48.3320   45.0490   56.6795 H   0  0  0  0  0  0
   46.5992   46.3224   58.8095 H   0  0  0  0  0  0
   42.9452   45.6055   54.9502 H   0  0  0  0  0  0
   47.6492   40.3457   53.1926 H   0  0  0  0  0  0
   46.5714   40.2346   54.6253 H   0  0  0  0  0  0
   45.6654   38.3452   53.6190 H   0  0  0  0  0  0
   48.2020   39.8423   54.4542 H   0  0  0  0  0  0
   47.0751   38.8571   56.1666 H   0  0  0  0  0  0
   49.7910   38.3380   53.2466 H   0  0  0  0  0  0
   49.0003   36.3505   54.3868 H   0  0  0  0  0  0
   48.1676   37.5175   51.0776 H   0  0  0  0  0  0
   47.8360   41.3900   51.4990 H   0  0  0  0  0  0
   51.2389   42.5309   48.3533 H   0  0  0  0  0  0
   52.5468   41.5221   47.4038 H   0  0  0  0  0  0
   52.0360   37.2290   48.7590 H   0  0  0  0  0  0
   52.7492   39.2376   47.7344 H   0  0  0  0  0  0
  1  2  2  0  0  0
  1  3  1  0  0  0
  1  4  1  0  0  0
  1  8  1  0  0  0
  3 32  1  0  0  0
  4 33  1  0  0  0
  5  6  2  0  0  0
  5  7  1  0  0  0
  5  8  1  0  0  0
  5 12  1  0  0  0
  7 34  1  0  0  0
  9 10  2  0  0  0
  9 11  1  0  0  0
  9 12  1  0  0  0
  9 13  1  0  0  0
 13 14  1  0  0  0
 14 15  1  0  0  0
 14 35  1  0  0  0
 14 36  1  0  0  0
 15 16  1  0  0  0
 15 17  1  0  0  0
 15 37  1  0  0  0
 16 21  1  0  0  0
 17 18  1  0  0  0
 17 19  1  0  0  0
 17 38  1  0  0  0
 18 39  1  0  0  0
 19 20  1  0  0  0
 19 21  1  0  0  0
 19 40  1  0  0  0
 20 41  1  0  0  0
 21 22  1  0  0  0
 21 42  1  0  0  0
 22 23  1  0  0  0
 22 31  1  0  0  0
 23 24  2  0  0  0
 23 43  1  0  0  0
 24 25  1  0  0  0
 25 26  2  0  0  0
 25 31  1  0  0  0
 26 27  1  0  0  0
 26 28  1  0  0  0
 27 44  1  0  0  0
 27 45  1  0  0  0
 28 29  2  0  0  0
 28 47  1  0  0  0
 29 30  1  0  0  0
 29 46  1  0  0  0
 30 31  2  0  0  0
M  CHG  2  11  -1  28   1
M  END
> <s_m_source_file>
/cbio/jclab/home/rustenburg/PFK/Epik-Ligands/Results/InProgress/ADENOSINE-5'-TRIPHOSPHATE/pH_4.0/ADENOSINE-5'-TRIPHOSPHATE_pH_4.0-before_epik.mol2

> <i_m_source_file_index>
1

> <r_epik_Ionization_Penalty>
  3.6214

> <r_epik_Ionization_Penalty_Charging>
  0.6034

> <r_epik_Ionization_Penalty_Neutral>
  3.0180

> <r_epik_State_Penalty>
  4.0786

> <r_epik_Charging_Adjusted_Penalty>
4.68205446059912

> <i_epik_Tot_Q>
0

> <i_epik_Tot_abs_Q>
2

> <s_epik_Chemistry_Notes>
This compound contains an acetal/aminal-like group ( X-CH(R)-Y where X, Y are N, S, or O) that may be acid/base labile, releasing an aldehyde.

$$$$
ATP
                    3D
 Structure written by MMmdl.
 43 45  0  0  1  0            999 V2000
   46.1070   45.1820   56.9500 P   0  0  0  0  0  0
   45.7790   46.3300   56.0520 O   0  0  0  0  0  0
   47.3820   44.4970   56.6260 O   0  5  0  0  0  0
   45.9720   45.5300   58.3750 O   0  5  0  0  0  0
   43.9110   43.7400   55.6550 P   0  0  0  0  0  0
   42.9750   42.7220   55.9860 O   0  0  0  0  0  0
   43.6030   44.7670   54.6780 O   0  5  0  0  0  0
   45.0410   44.0150   56.7380 O   0  0  0  0  0  0
   45.2280   42.6690   53.2570 P   0  0  0  0  0  0
   46.3800   43.3960   52.7880 O   0  0  0  0  0  0
   44.1830   42.1900   52.3510 O   0  5  0  0  0  0
   44.9170   42.7160   54.7890 O   0  0  0  0  0  0
   46.1720   41.5680   53.3020 O   0  0  0  0  0  0
   46.6090   40.4220   53.5420 C   0  0  0  0  0  0
   46.5200   38.9890   53.3640 C   0  0  1  0  0  0
   46.7850   38.9080   51.9480 O   0  0  0  0  0  0
   47.8080   38.8740   54.1120 C   0  0  1  0  0  0
   47.7130   38.3570   55.4230 O   0  0  0  0  0  0
   48.7190   38.1160   53.1390 C   0  0  1  0  0  0
   48.6320   36.7370   53.4250 O   0  0  0  0  0  0
   48.1330   38.4090   51.7210 C   0  0  2  0  0  0
   48.8460   39.4640   50.9860 N   0  0  0  0  0  0
   48.6160   40.8420   50.9450 C   0  0  0  0  0  0
   49.4250   41.4890   50.1650 N   0  0  0  0  0  0
   50.2320   40.4700   49.6640 C   0  0  0  0  0  0
   51.3080   40.4660   48.7310 C   0  0  0  0  0  0
   51.7210   41.5680   48.1290 N   0  0  0  0  0  0
   51.9120   39.2740   48.4470 N   0  0  0  0  0  0
   51.4930   38.1510   49.0290 C   0  0  0  0  0  0
   50.4910   38.0160   49.9000 N   0  0  0  0  0  0
   49.8920   39.2530   50.1710 C   0  0  0  0  0  0
   47.6492   40.3457   53.1926 H   0  0  0  0  0  0
   46.5714   40.2346   54.6253 H   0  0  0  0  0  0
   45.6654   38.3452   53.6190 H   0  0  0  0  0  0
   48.2020   39.8423   54.4542 H   0  0  0  0  0  0
   47.0751   38.8571   56.1666 H   0  0  0  0  0  0
   49.7910   38.3380   53.2466 H   0  0  0  0  0  0
   49.0003   36.3505   54.3868 H   0  0  0  0  0  0
   48.1676   37.5175   51.0776 H   0  0  0  0  0  0
   47.8360   41.3900   51.4990 H   0  0  0  0  0  0
   51.2389   42.5309   48.3533 H   0  0  0  0  0  0
   52.5468   41.5221   47.4038 H   0  0  0  0  0  0
   52.0360   37.2290   48.7590 H   0  0  0  0  0  0
  1  2  2  0  0  0
  1  3  1  0  0  0
  1  4  1  0  0  0
  1  8  1  0  0  0
  5  6  2  0  0  0
  5  7  1  0  0  0
  5  8  1  0  0  0
  5 12  1  0  0  0
  9 10  2  0  0  0
  9 11  1  0  0  0
  9 12  1  0  0  0
  9 13  1  0  0  0
 13 14  1  0  0  0
 14 15  1  0  0  0
 14 32  1  0  0  0
 14 33  1  0  0  0
 15 16  1  0  0  0
 15 17  1  0  0  0
 15 34  1  0  0  0
 16 21  1  0  0  0
 17 18  1  0  0  0
 17 19  1  0  0  0
 17 35  1  0  0  0
 18 36  1  0  0  0
 19 20  1  0  0  0
 19 21  1  0  0  0
 19 37  1  0  0  0
 20 38  1  0  0  0
 21 22  1  0  0  0
 21 39  1  0  0  0
 22 23  1  0  0  0
 22 31  1  0  0  0
 23 24  2  0  0  0
 23 40  1  0  0  0
 24 25  1  0  0  0
 25 26  2  0  0  0
 25 31  1  0  0  0
 26 27  1  0  0  0
 26 28  1  0  0  0
 27 41  1  0  0  0
 27 42  1  0  0  0
 28 29  2  0  0  0
 29 30  1  0  0  0
 29 43  1  0  0  0
 30 31  2  0  0  0
M  CHG  4   3  -1   4  -1   7  -1  11  -1
M  END
> <s_m_source_file>
/cbio/jclab/home/rustenburg/PFK/Epik-Ligands/Results/InProgress/ADENOSINE-5'-TRIPHOSPHATE/pH_4.0/ADENOSINE-5'-TRIPHOSPHATE_pH_4.0-before_epik.mol2

> <i_m_source_file_index>
1

> <r_lp_tautomer_probability>
0.999997216410988

> <r_epik_Ionization_Penalty>
  4.1151

> <r_epik_Ionization_Penalty_Charging>
  3.7865

> <r_epik_Ionization_Penalty_Neutral>
  0.3286

> <r_epik_State_Penalty>
  4.0908

> <r_epik_Charging_Adjusted_Penalty>
7.87726087434495

> <i_epik_Tot_Q>
-4

> <i_epik_Tot_abs_Q>
4

> <s_epik_Chemistry_Notes>
This compound contains an acetal/aminal-like group ( X-CH(R)-Y where X, Y are N, S, or O) that may be acid/base labile, releasing an aldehyde.

$$$$
ATP
                    3D
 Structure written by MMmdl.
 45 47  0  0  1  0            999 V2000
   46.1070   45.1820   56.9500 P   0  0  0  0  0  0
   45.7790   46.3300   56.0520 O   0  0  0  0  0  0
   47.3820   44.4970   56.6260 O   0  5  0  0  0  0
   45.9720   45.5300   58.3750 O   0  5  0  0  0  0
   43.9110   43.7400   55.6550 P   0  0  1  0  0  0
   42.9750   42.7220   55.9860 O   0  0  0  0  0  0
   43.6030   44.7670   54.6780 O   0  0  0  0  0  0
   45.0410   44.0150   56.7380 O   0  0  0  0  0  0
   45.2280   42.6690   53.2570 P   0  0  0  0  0  0
   46.3800   43.3960   52.7880 O   0  0  0  0  0  0
   44.1830   42.1900   52.3510 O   0  5  0  0  0  0
   44.9170   42.7160   54.7890 O   0  0  0  0  0  0
   46.1720   41.5680   53.3020 O   0  0  0  0  0  0
   46.6090   40.4220   53.5420 C   0  0  0  0  0  0
   46.5200   38.9890   53.3640 C   0  0  1  0  0  0
   46.7850   38.9080   51.9480 O   0  0  0  0  0  0
   47.8080   38.8740   54.1120 C   0  0  1  0  0  0
   47.7130   38.3570   55.4230 O   0  0  0  0  0  0
   48.7190   38.1160   53.1390 C   0  0  1  0  0  0
   48.6320   36.7370   53.4250 O   0  0  0  0  0  0
   48.1330   38.4090   51.7210 C   0  0  2  0  0  0
   48.8460   39.4640   50.9860 N   0  0  0  0  0  0
   48.6160   40.8420   50.9450 C   0  0  0  0  0  0
   49.4250   41.4890   50.1650 N   0  0  0  0  0  0
   50.2320   40.4700   49.6640 C   0  0  0  0  0  0
   51.3080   40.4660   48.7310 C   0  0  0  0  0  0
   51.7210   41.5680   48.1290 N   0  0  0  0  0  0
   51.9120   39.2740   48.4470 N   0  3  0  0  0  0
   51.4930   38.1510   49.0290 C   0  0  0  0  0  0
   50.4910   38.0160   49.9000 N   0  0  0  0  0  0
   49.8920   39.2530   50.1710 C   0  0  0  0  0  0
   42.9452   45.6055   54.9502 H   0  0  0  0  0  0
   47.6492   40.3457   53.1926 H   0  0  0  0  0  0
   46.5714   40.2346   54.6253 H   0  0  0  0  0  0
   45.6654   38.3452   53.6190 H   0  0  0  0  0  0
   48.2020   39.8423   54.4542 H   0  0  0  0  0  0
   47.0751   38.8571   56.1666 H   0  0  0  0  0  0
   49.7910   38.3380   53.2466 H   0  0  0  0  0  0
   49.0003   36.3505   54.3868 H   0  0  0  0  0  0
   48.1676   37.5175   51.0776 H   0  0  0  0  0  0
   47.8360   41.3900   51.4990 H   0  0  0  0  0  0
   51.2389   42.5309   48.3533 H   0  0  0  0  0  0
   52.5468   41.5221   47.4038 H   0  0  0  0  0  0
   52.0360   37.2290   48.7590 H   0  0  0  0  0  0
   52.7492   39.2376   47.7344 H   0  0  0  0  0  0
  1  2  2  0  0  0
  1  3  1  0  0  0
  1  4  1  0  0  0
  1  8  1  0  0  0
  5  6  2  0  0  0
  5  7  1  0  0  0
  5  8  1  0  0  0
  5 12  1  0  0  0
  7 32  1  0  0  0
  9 10  2  0  0  0
  9 11  1  0  0  0
  9 12  1  0  0  0
  9 13  1  0  0  0
 13 14  1  0  0  0
 14 15  1  0  0  0
 14 33  1  0  0  0
 14 34  1  0  0  0
 15 16  1  0  0  0
 15 17  1  0  0  0
 15 35  1  0  0  0
 16 21  1  0  0  0
 17 18  1  0  0  0
 17 19  1  0  0  0
 17 36  1  0  0  0
 18 37  1  0  0  0
 19 20  1  0  0  0
 19 21  1  0  0  0
 19 38  1  0  0  0
 20 39  1  0  0  0
 21 22  1  0  0  0
 21 40  1  0  0  0
 22 23  1  0  0  0
 22 31  1  0  0  0
 23 24  2  0  0  0
 23 41  1  0  0  0
 24 25  1  0  0  0
 25 26  2  0  0  0
 25 31  1  0  0  0
 26 27  1  0  0  0
 26 28  1  0  0  0
 27 42  1  0  0  0
 27 43  1  0  0  0
 28 29  2  0  0  0
 28 45  1  0  0  0
 29 30  1  0  0  0
 29 44  1  0  0  0
 30 31  2  0  0  0
M  CHG  4   3  -1   4  -1  11  -1  28   1
M  END
> <s_m_source_file>
/cbio/jclab/home/rustenburg/PFK/Epik-Ligands/Results/InProgress/ADENOSINE-5'-TRIPHOSPHATE/pH_4.0/ADENOSINE-5'-TRIPHOSPHATE_pH_4.0-before_epik.mol2

> <i_m_source_file_index>
1

> <r_epik_Ionization_Penalty>
  3.0653

> <r_epik_Ionization_Penalty_Charging>
  2.8012

> <r_epik_Ionization_Penalty_Neutral>
  0.2642

> <r_epik_State_Penalty>
  4.4639

> <r_epik_Charging_Adjusted_Penalty>
7.26503906997728

> <i_epik_Tot_Q>
-2

> <i_epik_Tot_abs_Q>
4

> <s_epik_Chemistry_Notes>
This compound contains an acetal/aminal-like group ( X-CH(R)-Y where X, Y are N, S, or O) that may be acid/base labile, releasing an aldehyde.

$$$$
ATP
                    3D
 Structure written by MMmdl.
 44 46  0  0  1  0            999 V2000
   46.1070   45.1820   56.9500 P   0  0  0  0  0  0
   45.7790   46.3300   56.0520 O   0  0  0  0  0  0
   47.3820   44.4970   56.6260 O   0  5  0  0  0  0
   45.9720   45.5300   58.3750 O   0  5  0  0  0  0
   43.9110   43.7400   55.6550 P   0  0  0  0  0  0
   42.9750   42.7220   55.9860 O   0  0  0  0  0  0
   43.6030   44.7670   54.6780 O   0  5  0  0  0  0
   45.0410   44.0150   56.7380 O   0  0  0  0  0  0
   45.2280   42.6690   53.2570 P   0  0  0  0  0  0
   46.3800   43.3960   52.7880 O   0  0  0  0  0  0
   44.1830   42.1900   52.3510 O   0  5  0  0  0  0
   44.9170   42.7160   54.7890 O   0  0  0  0  0  0
   46.1720   41.5680   53.3020 O   0  0  0  0  0  0
   46.6090   40.4220   53.5420 C   0  0  0  0  0  0
   46.5200   38.9890   53.3640 C   0  0  1  0  0  0
   46.7850   38.9080   51.9480 O   0  0  0  0  0  0
   47.8080   38.8740   54.1120 C   0  0  1  0  0  0
   47.7130   38.3570   55.4230 O   0  0  0  0  0  0
   48.7190   38.1160   53.1390 C   0  0  1  0  0  0
   48.6320   36.7370   53.4250 O   0  0  0  0  0  0
   48.1330   38.4090   51.7210 C   0  0  2  0  0  0
   48.8460   39.4640   50.9860 N   0  0  0  0  0  0
   48.6160   40.8420   50.9450 C   0  0  0  0  0  0
   49.4250   41.4890   50.1650 N   0  0  0  0  0  0
   50.2320   40.4700   49.6640 C   0  0  0  0  0  0
   51.3080   40.4660   48.7310 C   0  0  0  0  0  0
   51.7210   41.5680   48.1290 N   0  0  0  0  0  0
   51.9120   39.2740   48.4470 N   0  3  0  0  0  0
   51.4930   38.1510   49.0290 C   0  0  0  0  0  0
   50.4910   38.0160   49.9000 N   0  0  0  0  0  0
   49.8920   39.2530   50.1710 C   0  0  0  0  0  0
   47.6492   40.3457   53.1926 H   0  0  0  0  0  0
   46.5714   40.2346   54.6253 H   0  0  0  0  0  0
   45.6654   38.3452   53.6190 H   0  0  0  0  0  0
   48.2020   39.8423   54.4542 H   0  0  0  0  0  0
   47.0751   38.8571   56.1666 H   0  0  0  0  0  0
   49.7910   38.3380   53.2466 H   0  0  0  0  0  0
   49.0003   36.3505   54.3868 H   0  0  0  0  0  0
   48.1676   37.5175   51.0776 H   0  0  0  0  0  0
   47.8360   41.3900   51.4990 H   0  0  0  0  0  0
   51.2389   42.5309   48.3533 H   0  0  0  0  0  0
   52.5468   41.5221   47.4038 H   0  0  0  0  0  0
   52.0360   37.2290   48.7590 H   0  0  0  0  0  0
   52.7492   39.2376   47.7344 H   0  0  0  0  0  0
  1  2  2  0  0  0
  1  3  1  0  0  0
  1  4  1  0  0  0
  1  8  1  0  0  0
  5  6  2  0  0  0
  5  7  1  0  0  0
  5  8  1  0  0  0
  5 12  1  0  0  0
  9 10  2  0  0  0
  9 11  1  0  0  0
  9 12  1  0  0  0
  9 13  1  0  0  0
 13 14  1  0  0  0
 14 15  1  0  0  0
 14 32  1  0  0  0
 14 33  1  0  0  0
 15 16  1  0  0  0
 15 17  1  0  0  0
 15 34  1  0  0  0
 16 21  1  0  0  0
 17 18  1  0  0  0
 17 19  1  0  0  0
 17 35  1  0  0  0
 18 36  1  0  0  0
 19 20  1  0  0  0
 19 21  1  0  0  0
 19 37  1  0  0  0
 20 38  1  0  0  0
 21 22  1  0  0  0
 21 39  1  0  0  0
 22 23  1  0  0  0
 22 31  1  0  0  0
 23 24  2  0  0  0
 23 40  1  0  0  0
 24 25  1  0  0  0
 25 26  2  0  0  0
 25 31  1  0  0  0
 26 27  1  0  0  0
 26 28  1  0  0  0
 27 41  1  0  0  0
 27 42  1  0  0  0
 28 29  2  0  0  0
 28 44  1  0  0  0
 29 30  1  0  0  0
 29 43  1  0  0  0
 30 31  2  0  0  0
M  CHG  5   3  -1   4  -1   7  -1  11  -1  28   1
M  END
> <s_m_source_file>
/cbio/jclab/home/rustenburg/PFK/Epik-Ligands/Results/InProgress/ADENOSINE-5'-TRIPHOSPHATE/pH_4.0/ADENOSINE-5'-TRIPHOSPHATE_pH_4.0-before_epik.mol2

> <i_m_source_file_index>
1

> <r_epik_Ionization_Penalty>
  4.3343

> <r_epik_Ionization_Penalty_Charging>
  4.3278

> <r_epik_Ionization_Penalty_Neutral>
  0.0065

> <r_epik_State_Penalty>
  4.7127

> <r_epik_Charging_Adjusted_Penalty>
9.04046875387912

> <i_epik_Tot_Q>
-3

> <i_epik_Tot_abs_Q>
5

> <s_epik_Chemistry_Notes>
This compound contains an acetal/aminal-like group ( X-CH(R)-Y where X, Y are N, S, or O) that may be acid/base labile, releasing an aldehyde.

$$$$
ATP
                    3D
 Structure written by MMmdl.
 47 49  0  0  1  0            999 V2000
   46.1070   45.1820   56.9500 P   0  0  0  0  0  0
   45.7790   46.3300   56.0520 O   0  0  0  0  0  0
   47.3820   44.4970   56.6260 O   0  0  0  0  0  0
   45.9720   45.5300   58.3750 O   0  0  0  0  0  0
   43.9110   43.7400   55.6550 P   0  0  0  0  0  0
   42.9750   42.7220   55.9860 O   0  0  0  0  0  0
   43.6030   44.7670   54.6780 O   0  5  0  0  0  0
   45.0410   44.0150   56.7380 O   0  0  0  0  0  0
   45.2280   42.6690   53.2570 P   0  0  2  0  0  0
   46.3800   43.3960   52.7880 O   0  0  0  0  0  0
   44.1830   42.1900   52.3510 O   0  0  0  0  0  0
   44.9170   42.7160   54.7890 O   0  0  0  0  0  0
   46.1720   41.5680   53.3020 O   0  0  0  0  0  0
   46.6090   40.4220   53.5420 C   0  0  0  0  0  0
   46.5200   38.9890   53.3640 C   0  0  1  0  0  0
   46.7850   38.9080   51.9480 O   0  0  0  0  0  0
   47.8080   38.8740   54.1120 C   0  0  1  0  0  0
   47.7130   38.3570   55.4230 O   0  0  0  0  0  0
   48.7190   38.1160   53.1390 C   0  0  1  0  0  0
   48.6320   36.7370   53.4250 O   0  0  0  0  0  0
   48.1330   38.4090   51.7210 C   0  0  2  0  0  0
   48.8460   39.4640   50.9860 N   0  0  0  0  0  0
   48.6160   40.8420   50.9450 C   0  0  0  0  0  0
   49.4250   41.4890   50.1650 N   0  3  0  0  0  0
   50.2320   40.4700   49.6640 C   0  0  0  0  0  0
   51.3080   40.4660   48.7310 C   0  0  0  0  0  0
   51.7210   41.5680   48.1290 N   0  0  0  0  0  0
   51.9120   39.2740   48.4470 N   0  0  0  0  0  0
   51.4930   38.1510   49.0290 C   0  0  0  0  0  0
   50.4910   38.0160   49.9000 N   0  0  0  0  0  0
   49.8920   39.2530   50.1710 C   0  0  0  0  0  0
   48.3320   45.0490   56.6795 H   0  0  0  0  0  0
   46.5992   46.3224   58.8095 H   0  0  0  0  0  0
   43.3173   42.8293   52.1230 H   0  0  0  0  0  0
   47.6492   40.3457   53.1926 H   0  0  0  0  0  0
   46.5714   40.2346   54.6253 H   0  0  0  0  0  0
   45.6654   38.3452   53.6190 H   0  0  0  0  0  0
   48.2020   39.8423   54.4542 H   0  0  0  0  0  0
   47.0751   38.8571   56.1666 H   0  0  0  0  0  0
   49.7910   38.3380   53.2466 H   0  0  0  0  0  0
   49.0003   36.3505   54.3868 H   0  0  0  0  0  0
   48.1676   37.5175   51.0776 H   0  0  0  0  0  0
   47.8360   41.3900   51.4990 H   0  0  0  0  0  0
   51.2389   42.5309   48.3533 H   0  0  0  0  0  0
   52.5468   41.5221   47.4038 H   0  0  0  0  0  0
   52.0360   37.2290   48.7590 H   0  0  0  0  0  0
   49.3328   42.5801   50.0600 H   0  0  0  0  0  0
  1  2  2  0  0  0
  1  3  1  0  0  0
  1  4  1  0  0  0
  1  8  1  0  0  0
  3 32  1  0  0  0
  4 33  1  0  0  0
  5  6  2  0  0  0
  5  7  1  0  0  0
  5  8  1  0  0  0
  5 12  1  0  0  0
  9 10  2  0  0  0
  9 11  1  0  0  0
  9 12  1  0  0  0
  9 13  1  0  0  0
 11 34  1  0  0  0
 13 14  1  0  0  0
 14 15  1  0  0  0
 14 35  1  0  0  0
 14 36  1  0  0  0
 15 16  1  0  0  0
 15 17  1  0  0  0
 15 37  1  0  0  0
 16 21  1  0  0  0
 17 18  1  0  0  0
 17 19  1  0  0  0
 17 38  1  0  0  0
 18 39  1  0  0  0
 19 20  1  0  0  0
 19 21  1  0  0  0
 19 40  1  0  0  0
 20 41  1  0  0  0
 21 22  1  0  0  0
 21 42  1  0  0  0
 22 23  1  0  0  0
 22 31  1  0  0  0
 23 24  2  0  0  0
 23 43  1  0  0  0
 24 25  1  0  0  0
 24 47  1  0  0  0
 25 26  2  0  0  0
 25 31  1  0  0  0
 26 27  1  0  0  0
 26 28  1  0  0  0
 27 44  1  0  0  0
 27 45  1  0  0  0
 28 29  2  0  0  0
 29 30  1  0  0  0
 29 46  1  0  0  0
 30 31  2  0  0  0
M  CHG  2   7  -1  24   1
M  END
> <s_m_source_file>
/cbio/jclab/home/rustenburg/PFK/Epik-Ligands/Results/InProgress/ADENOSINE-5'-TRIPHOSPHATE/pH_4.0/ADENOSINE-5'-TRIPHOSPHATE_pH_4.0-before_epik.mol2

> <i_m_source_file_index>
1

> <r_epik_Ionization_Penalty>
  3.9768

> <r_epik_Ionization_Penalty_Charging>
  1.9194

> <r_epik_Ionization_Penalty_Neutral>
  2.0574

> <r_epik_State_Penalty>
  4.7899

> <r_epik_Charging_Adjusted_Penalty>
6.70933833969243

> <i_epik_Tot_Q>
0

> <i_epik_Tot_abs_Q>
2

> <s_epik_Chemistry_Notes>
This compound contains an acetal/aminal-like group ( X-CH(R)-Y where X, Y are N, S, or O) that may be acid/base labile, releasing an aldehyde.

$$$$
ATP
                    3D
 Structure written by MMmdl.
 44 46  0  0  1  0            999 V2000
   46.1070   45.1820   56.9500 P   0  0  0  0  0  0
   45.7790   46.3300   56.0520 O   0  0  0  0  0  0
   47.3820   44.4970   56.6260 O   0  5  0  0  0  0
   45.9720   45.5300   58.3750 O   0  5  0  0  0  0
   43.9110   43.7400   55.6550 P   0  0  0  0  0  0
   42.9750   42.7220   55.9860 O   0  0  0  0  0  0
   43.6030   44.7670   54.6780 O   0  5  0  0  0  0
   45.0410   44.0150   56.7380 O   0  0  0  0  0  0
   45.2280   42.6690   53.2570 P   0  0  2  0  0  0
   46.3800   43.3960   52.7880 O   0  0  0  0  0  0
   44.1830   42.1900   52.3510 O   0  0  0  0  0  0
   44.9170   42.7160   54.7890 O   0  0  0  0  0  0
   46.1720   41.5680   53.3020 O   0  0  0  0  0  0
   46.6090   40.4220   53.5420 C   0  0  0  0  0  0
   46.5200   38.9890   53.3640 C   0  0  1  0  0  0
   46.7850   38.9080   51.9480 O   0  0  0  0  0  0
   47.8080   38.8740   54.1120 C   0  0  1  0  0  0
   47.7130   38.3570   55.4230 O   0  0  0  0  0  0
   48.7190   38.1160   53.1390 C   0  0  1  0  0  0
   48.6320   36.7370   53.4250 O   0  0  0  0  0  0
   48.1330   38.4090   51.7210 C   0  0  2  0  0  0
   48.8460   39.4640   50.9860 N   0  0  0  0  0  0
   48.6160   40.8420   50.9450 C   0  0  0  0  0  0
   49.4250   41.4890   50.1650 N   0  0  0  0  0  0
   50.2320   40.4700   49.6640 C   0  0  0  0  0  0
   51.3080   40.4660   48.7310 C   0  0  0  0  0  0
   51.7210   41.5680   48.1290 N   0  0  0  0  0  0
   51.9120   39.2740   48.4470 N   0  0  0  0  0  0
   51.4930   38.1510   49.0290 C   0  0  0  0  0  0
   50.4910   38.0160   49.9000 N   0  0  0  0  0  0
   49.8920   39.2530   50.1710 C   0  0  0  0  0  0
   43.3173   42.8293   52.1230 H   0  0  0  0  0  0
   47.6492   40.3457   53.1926 H   0  0  0  0  0  0
   46.5714   40.2346   54.6253 H   0  0  0  0  0  0
   45.6654   38.3452   53.6190 H   0  0  0  0  0  0
   48.2020   39.8423   54.4542 H   0  0  0  0  0  0
   47.0751   38.8571   56.1666 H   0  0  0  0  0  0
   49.7910   38.3380   53.2466 H   0  0  0  0  0  0
   49.0003   36.3505   54.3868 H   0  0  0  0  0  0
   48.1676   37.5175   51.0776 H   0  0  0  0  0  0
   47.8360   41.3900   51.4990 H   0  0  0  0  0  0
   51.2389   42.5309   48.3533 H   0  0  0  0  0  0
   52.5468   41.5221   47.4038 H   0  0  0  0  0  0
   52.0360   37.2290   48.7590 H   0  0  0  0  0  0
  1  2  2  0  0  0
  1  3  1  0  0  0
  1  4  1  0  0  0
  1  8  1  0  0  0
  5  6  2  0  0  0
  5  7  1  0  0  0
  5  8  1  0  0  0
  5 12  1  0  0  0
  9 10  2  0  0  0
  9 11  1  0  0  0
  9 12  1  0  0  0
  9 13  1  0  0  0
 11 32  1  0  0  0
 13 14  1  0  0  0
 14 15  1  0  0  0
 14 33  1  0  0  0
 14 34  1  0  0  0
 15 16  1  0  0  0
 15 17  1  0  0  0
 15 35  1  0  0  0
 16 21  1  0  0  0
 17 18  1  0  0  0
 17 19  1  0  0  0
 17 36  1  0  0  0
 18 37  1  0  0  0
 19 20  1  0  0  0
 19 21  1  0  0  0
 19 38  1  0  0  0
 20 39  1  0  0  0
 21 22  1  0  0  0
 21 40  1  0  0  0
 22 23  1  0  0  0
 22 31  1  0  0  0
 23 24  2  0  0  0
 23 41  1  0  0  0
 24 25  1  0  0  0
 25 26  2  0  0  0
 25 31  1  0  0  0
 26 27  1  0  0  0
 26 28  1  0  0  0
 27 42  1  0  0  0
 27 43  1  0  0  0
 28 29  2  0  0  0
 29 30  1  0  0  0
 29 44  1  0  0  0
 30 31  2  0  0  0
M  CHG  3   3  -1   4  -1   7  -1
M  END
> <s_m_source_file>
/cbio/jclab/home/rustenburg/PFK/Epik-Ligands/Results/InProgress/ADENOSINE-5'-TRIPHOSPHATE/pH_4.0/ADENOSINE-5'-TRIPHOSPHATE_pH_4.0-before_epik.mol2

> <i_m_source_file_index>
1

> <r_epik_Ionization_Penalty>
  4.1728

> <r_epik_Ionization_Penalty_Charging>
  3.1463

> <r_epik_Ionization_Penalty_Neutral>
  1.0265

> <r_epik_State_Penalty>
  4.7966

> <r_epik_Charging_Adjusted_Penalty>
7.94291739503496

> <i_epik_Tot_Q>
-3

> <i_epik_Tot_abs_Q>
3

> <s_epik_Chemistry_Notes>
This compound contains an acetal/aminal-like group ( X-CH(R)-Y where X, Y are N, S, or O) that may be acid/base labile, releasing an aldehyde.

$$$$
ATP
                    3D
 Structure written by MMmdl.
 45 47  0  0  1  0            999 V2000
   46.1070   45.1820   56.9500 P   0  0  0  0  0  0
   45.7790   46.3300   56.0520 O   0  0  0  0  0  0
   47.3820   44.4970   56.6260 O   0  5  0  0  0  0
   45.9720   45.5300   58.3750 O   0  0  0  0  0  0
   43.9110   43.7400   55.6550 P   0  0  0  0  0  0
   42.9750   42.7220   55.9860 O   0  0  0  0  0  0
   43.6030   44.7670   54.6780 O   0  5  0  0  0  0
   45.0410   44.0150   56.7380 O   0  0  0  0  0  0
   45.2280   42.6690   53.2570 P   0  0  0  0  0  0
   46.3800   43.3960   52.7880 O   0  0  0  0  0  0
   44.1830   42.1900   52.3510 O   0  5  0  0  0  0
   44.9170   42.7160   54.7890 O   0  0  0  0  0  0
   46.1720   41.5680   53.3020 O   0  0  0  0  0  0
   46.6090   40.4220   53.5420 C   0  0  0  0  0  0
   46.5200   38.9890   53.3640 C   0  0  1  0  0  0
   46.7850   38.9080   51.9480 O   0  0  0  0  0  0
   47.8080   38.8740   54.1120 C   0  0  1  0  0  0
   47.7130   38.3570   55.4230 O   0  0  0  0  0  0
   48.7190   38.1160   53.1390 C   0  0  1  0  0  0
   48.6320   36.7370   53.4250 O   0  0  0  0  0  0
   48.1330   38.4090   51.7210 C   0  0  2  0  0  0
   48.8460   39.4640   50.9860 N   0  0  0  0  0  0
   48.6160   40.8420   50.9450 C   0  0  0  0  0  0
   49.4250   41.4890   50.1650 N   0  3  0  0  0  0
   50.2320   40.4700   49.6640 C   0  0  0  0  0  0
   51.3080   40.4660   48.7310 C   0  0  0  0  0  0
   51.7210   41.5680   48.1290 N   0  0  0  0  0  0
   51.9120   39.2740   48.4470 N   0  0  0  0  0  0
   51.4930   38.1510   49.0290 C   0  0  0  0  0  0
   50.4910   38.0160   49.9000 N   0  0  0  0  0  0
   49.8920   39.2530   50.1710 C   0  0  0  0  0  0
   46.5992   46.3224   58.8095 H   0  0  0  0  0  0
   47.6492   40.3457   53.1926 H   0  0  0  0  0  0
   46.5714   40.2346   54.6253 H   0  0  0  0  0  0
   45.6654   38.3452   53.6190 H   0  0  0  0  0  0
   48.2020   39.8423   54.4542 H   0  0  0  0  0  0
   47.0751   38.8571   56.1666 H   0  0  0  0  0  0
   49.7910   38.3380   53.2466 H   0  0  0  0  0  0
   49.0003   36.3505   54.3868 H   0  0  0  0  0  0
   48.1676   37.5175   51.0776 H   0  0  0  0  0  0
   47.8360   41.3900   51.4990 H   0  0  0  0  0  0
   51.9400   42.2520   48.8520 H   0  0  0  0  0  0
   52.0360   37.2290   48.7590 H   0  0  0  0  0  0
   52.7492   39.2376   47.7344 H   0  0  0  0  0  0
   49.3328   42.5801   50.0600 H   0  0  0  0  0  0
  1  2  2  0  0  0
  1  3  1  0  0  0
  1  4  1  0  0  0
  1  8  1  0  0  0
  4 32  1  0  0  0
  5  6  2  0  0  0
  5  7  1  0  0  0
  5  8  1  0  0  0
  5 12  1  0  0  0
  9 10  2  0  0  0
  9 11  1  0  0  0
  9 12  1  0  0  0
  9 13  1  0  0  0
 13 14  1  0  0  0
 14 15  1  0  0  0
 14 33  1  0  0  0
 14 34  1  0  0  0
 15 16  1  0  0  0
 15 17  1  0  0  0
 15 35  1  0  0  0
 16 21  1  0  0  0
 17 18  1  0  0  0
 17 19  1  0  0  0
 17 36  1  0  0  0
 18 37  1  0  0  0
 19 20  1  0  0  0
 19 21  1  0  0  0
 19 38  1  0  0  0
 20 39  1  0  0  0
 21 22  1  0  0  0
 21 40  1  0  0  0
 22 23  1  0  0  0
 22 31  1  0  0  0
 23 24  2  0  0  0
 23 41  1  0  0  0
 24 25  1  0  0  0
 24 45  1  0  0  0
 25 26  1  0  0  0
 25 31  2  0  0  0
 26 27  2  0  0  0
 26 28  1  0  0  0
 27 42  1  0  0  0
 28 29  1  0  0  0
 28 44  1  0  0  0
 29 30  2  0  0  0
 29 43  1  0  0  0
 30 31  1  0  0  0
M  CHG  4   3  -1   7  -1  11  -1  24   1
M  END
> <s_m_source_file>
/cbio/jclab/home/rustenburg/PFK/Epik-Ligands/Results/InProgress/ADENOSINE-5'-TRIPHOSPHATE/pH_4.0/ADENOSINE-5'-TRIPHOSPHATE_pH_4.0-before_epik.mol2

> <i_m_source_file_index>
1

> <r_epik_Ionization_Penalty>
  1.2994

> <r_epik_Ionization_Penalty_Charging>
  0.9294

> <r_epik_Ionization_Penalty_Neutral>
  0.3700

> <r_epik_State_Penalty>
  4.9005

> <r_epik_Charging_Adjusted_Penalty>
5.82988793772977

> <i_epik_Tot_Q>
-2

> <i_epik_Tot_abs_Q>
4

> <s_epik_Chemistry_Notes>
This compound contains an acetal/aminal-like group ( X-CH(R)-Y where X, Y are N, S, or O) that may be acid/base labile, releasing an aldehyde.

$$$$
ATP
                    3D
 Structure written by MMmdl.
 45 47  0  0  1  0            999 V2000
   46.1070   45.1820   56.9500 P   0  0  0  0  0  0
   45.7790   46.3300   56.0520 O   0  0  0  0  0  0
   47.3820   44.4970   56.6260 O   0  5  0  0  0  0
   45.9720   45.5300   58.3750 O   0  0  0  0  0  0
   43.9110   43.7400   55.6550 P   0  0  0  0  0  0
   42.9750   42.7220   55.9860 O   0  0  0  0  0  0
   43.6030   44.7670   54.6780 O   0  5  0  0  0  0
   45.0410   44.0150   56.7380 O   0  0  0  0  0  0
   45.2280   42.6690   53.2570 P   0  0  0  0  0  0
   46.3800   43.3960   52.7880 O   0  0  0  0  0  0
   44.1830   42.1900   52.3510 O   0  5  0  0  0  0
   44.9170   42.7160   54.7890 O   0  0  0  0  0  0
   46.1720   41.5680   53.3020 O   0  0  0  0  0  0
   46.6090   40.4220   53.5420 C   0  0  0  0  0  0
   46.5200   38.9890   53.3640 C   0  0  1  0  0  0
   46.7850   38.9080   51.9480 O   0  0  0  0  0  0
   47.8080   38.8740   54.1120 C   0  0  1  0  0  0
   47.7130   38.3570   55.4230 O   0  0  0  0  0  0
   48.7190   38.1160   53.1390 C   0  0  1  0  0  0
   48.6320   36.7370   53.4250 O   0  0  0  0  0  0
   48.1330   38.4090   51.7210 C   0  0  2  0  0  0
   48.8460   39.4640   50.9860 N   0  0  0  0  0  0
   48.6160   40.8420   50.9450 C   0  0  0  0  0  0
   49.4250   41.4890   50.1650 N   0  3  0  0  0  0
   50.2320   40.4700   49.6640 C   0  0  0  0  0  0
   51.3080   40.4660   48.7310 C   0  0  0  0  0  0
   51.7210   41.5680   48.1290 N   0  0  0  0  0  0
   51.9120   39.2740   48.4470 N   0  0  0  0  0  0
   51.4930   38.1510   49.0290 C   0  0  0  0  0  0
   50.4910   38.0160   49.9000 N   0  0  0  0  0  0
   49.8920   39.2530   50.1710 C   0  0  0  0  0  0
   46.5992   46.3224   58.8095 H   0  0  0  0  0  0
   47.6492   40.3457   53.1926 H   0  0  0  0  0  0
   46.5714   40.2346   54.6253 H   0  0  0  0  0  0
   45.6654   38.3452   53.6190 H   0  0  0  0  0  0
   48.2020   39.8423   54.4542 H   0  0  0  0  0  0
   47.0751   38.8571   56.1666 H   0  0  0  0  0  0
   49.7910   38.3380   53.2466 H   0  0  0  0  0  0
   49.0003   36.3505   54.3868 H   0  0  0  0  0  0
   48.1676   37.5175   51.0776 H   0  0  0  0  0  0
   47.8360   41.3900   51.4990 H   0  0  0  0  0  0
   52.4910   41.5650   47.4600 H   0  0  0  0  0  0
   52.0360   37.2290   48.7590 H   0  0  0  0  0  0
   52.7492   39.2376   47.7344 H   0  0  0  0  0  0
   49.3328   42.5801   50.0600 H   0  0  0  0  0  0
  1  2  2  0  0  0
  1  3  1  0  0  0
  1  4  1  0  0  0
  1  8  1  0  0  0
  4 32  1  0  0  0
  5  6  2  0  0  0
  5  7  1  0  0  0
  5  8  1  0  0  0
  5 12  1  0  0  0
  9 10  2  0  0  0
  9 11  1  0  0  0
  9 12  1  0  0  0
  9 13  1  0  0  0
 13 14  1  0  0  0
 14 15  1  0  0  0
 14 33  1  0  0  0
 14 34  1  0  0  0
 15 16  1  0  0  0
 15 17  1  0  0  0
 15 35  1  0  0  0
 16 21  1  0  0  0
 17 18  1  0  0  0
 17 19  1  0  0  0
 17 36  1  0  0  0
 18 37  1  0  0  0
 19 20  1  0  0  0
 19 21  1  0  0  0
 19 38  1  0  0  0
 20 39  1  0  0  0
 21 22  1  0  0  0
 21 40  1  0  0  0
 22 23  1  0  0  0
 22 31  1  0  0  0
 23 24  2  0  0  0
 23 41  1  0  0  0
 24 25  1  0  0  0
 24 45  1  0  0  0
 25 26  1  0  0  0
 25 31  2  0  0  0
 26 27  2  0  0  0
 26 28  1  0  0  0
 27 42  1  0  0  0
 28 29  1  0  0  0
 28 44  1  0  0  0
 29 30  2  0  0  0
 29 43  1  0  0  0
 30 31  1  0  0  0
M  CHG  4   3  -1   7  -1  11  -1  24   1
M  END
> <s_m_source_file>
/cbio/jclab/home/rustenburg/PFK/Epik-Ligands/Results/InProgress/ADENOSINE-5'-TRIPHOSPHATE/pH_4.0/ADENOSINE-5'-TRIPHOSPHATE_pH_4.0-before_epik.mol2

> <i_m_source_file_index>
1

> <r_epik_Ionization_Penalty>
  1.2994

> <r_epik_Ionization_Penalty_Charging>
  0.9294

> <r_epik_Ionization_Penalty_Neutral>
  0.3700

> <r_epik_State_Penalty>
  4.9005

> <r_epik_Charging_Adjusted_Penalty>
5.82988793772977

> <i_epik_Tot_Q>
-2

> <i_epik_Tot_abs_Q>
4

> <s_epik_Chemistry_Notes>
This compound contains an acetal/aminal-like group ( X-CH(R)-Y where X, Y are N, S, or O) that may be acid/base labile, releasing an aldehyde.

$$$$
ATP
                    3D
 Structure written by MMmdl.
 47 49  0  0  1  0            999 V2000
   46.1070   45.1820   56.9500 P   0  0  0  0  0  0
   45.7790   46.3300   56.0520 O   0  0  0  0  0  0
   47.3820   44.4970   56.6260 O   0  0  0  0  0  0
   45.9720   45.5300   58.3750 O   0  0  0  0  0  0
   43.9110   43.7400   55.6550 P   0  0  1  0  0  0
   42.9750   42.7220   55.9860 O   0  0  0  0  0  0
   43.6030   44.7670   54.6780 O   0  0  0  0  0  0
   45.0410   44.0150   56.7380 O   0  0  0  0  0  0
   45.2280   42.6690   53.2570 P   0  0  2  0  0  0
   46.3800   43.3960   52.7880 O   0  0  0  0  0  0
   44.1830   42.1900   52.3510 O   0  0  0  0  0  0
   44.9170   42.7160   54.7890 O   0  0  0  0  0  0
   46.1720   41.5680   53.3020 O   0  0  0  0  0  0
   46.6090   40.4220   53.5420 C   0  0  0  0  0  0
   46.5200   38.9890   53.3640 C   0  0  1  0  0  0
   46.7850   38.9080   51.9480 O   0  0  0  0  0  0
   47.8080   38.8740   54.1120 C   0  0  1  0  0  0
   47.7130   38.3570   55.4230 O   0  0  0  0  0  0
   48.7190   38.1160   53.1390 C   0  0  1  0  0  0
   48.6320   36.7370   53.4250 O   0  0  0  0  0  0
   48.1330   38.4090   51.7210 C   0  0  2  0  0  0
   48.8460   39.4640   50.9860 N   0  0  0  0  0  0
   48.6160   40.8420   50.9450 C   0  0  0  0  0  0
   49.4250   41.4890   50.1650 N   0  0  0  0  0  0
   50.2320   40.4700   49.6640 C   0  0  0  0  0  0
   51.3080   40.4660   48.7310 C   0  0  0  0  0  0
   51.7210   41.5680   48.1290 N   0  0  0  0  0  0
   51.9120   39.2740   48.4470 N   0  0  0  0  0  0
   51.4930   38.1510   49.0290 C   0  0  0  0  0  0
   50.4910   38.0160   49.9000 N   0  0  0  0  0  0
   49.8920   39.2530   50.1710 C   0  0  0  0  0  0
   48.3320   45.0490   56.6795 H   0  0  0  0  0  0
   46.5992   46.3224   58.8095 H   0  0  0  0  0  0
   42.9452   45.6055   54.9502 H   0  0  0  0  0  0
   43.3173   42.8293   52.1230 H   0  0  0  0  0  0
   47.6492   40.3457   53.1926 H   0  0  0  0  0  0
   46.5714   40.2346   54.6253 H   0  0  0  0  0  0
   45.6654   38.3452   53.6190 H   0  0  0  0  0  0
   48.2020   39.8423   54.4542 H   0  0  0  0  0  0
   47.0751   38.8571   56.1666 H   0  0  0  0  0  0
   49.7910   38.3380   53.2466 H   0  0  0  0  0  0
   49.0003   36.3505   54.3868 H   0  0  0  0  0  0
   48.1676   37.5175   51.0776 H   0  0  0  0  0  0
   47.8360   41.3900   51.4990 H   0  0  0  0  0  0
   51.2389   42.5309   48.3533 H   0  0  0  0  0  0
   52.5468   41.5221   47.4038 H   0  0  0  0  0  0
   52.0360   37.2290   48.7590 H   0  0  0  0  0  0
  1  2  2  0  0  0
  1  3  1  0  0  0
  1  4  1  0  0  0
  1  8  1  0  0  0
  3 32  1  0  0  0
  4 33  1  0  0  0
  5  6  2  0  0  0
  5  7  1  0  0  0
  5  8  1  0  0  0
  5 12  1  0  0  0
  7 34  1  0  0  0
  9 10  2  0  0  0
  9 11  1  0  0  0
  9 12  1  0  0  0
  9 13  1  0  0  0
 11 35  1  0  0  0
 13 14  1  0  0  0
 14 15  1  0  0  0
 14 36  1  0  0  0
 14 37  1  0  0  0
 15 16  1  0  0  0
 15 17  1  0  0  0
 15 38  1  0  0  0
 16 21  1  0  0  0
 17 18  1  0  0  0
 17 19  1  0  0  0
 17 39  1  0  0  0
 18 40  1  0  0  0
 19 20  1  0  0  0
 19 21  1  0  0  0
 19 41  1  0  0  0
 20 42  1  0  0  0
 21 22  1  0  0  0
 21 43  1  0  0  0
 22 23  1  0  0  0
 22 31  1  0  0  0
 23 24  2  0  0  0
 23 44  1  0  0  0
 24 25  1  0  0  0
 25 26  2  0  0  0
 25 31  1  0  0  0
 26 27  1  0  0  0
 26 28  1  0  0  0
 27 45  1  0  0  0
 27 46  1  0  0  0
 28 29  2  0  0  0
 29 30  1  0  0  0
 29 47  1  0  0  0
 30 31  2  0  0  0
M  END
> <s_m_source_file>
/cbio/jclab/home/rustenburg/PFK/Epik-Ligands/Results/InProgress/ADENOSINE-5'-TRIPHOSPHATE/pH_4.0/ADENOSINE-5'-TRIPHOSPHATE_pH_4.0-before_epik.mol2

> <i_m_source_file_index>
1

> <r_epik_Ionization_Penalty>
  5.3648

> <r_epik_Ionization_Penalty_Charging>
  0.0000

> <r_epik_Ionization_Penalty_Neutral>
  5.3648

> <r_epik_State_Penalty>
  5.0181

> <r_epik_Charging_Adjusted_Penalty>
5.01811451099436

> <i_epik_Tot_Q>
0

> <i_epik_Tot_abs_Q>
0

> <s_epik_Chemistry_Notes>
This compound contains an acetal/aminal-like group ( X-CH(R)-Y where X, Y are N, S, or O) that may be acid/base labile, releasing an aldehyde.

$$$$
ATP
                    3D
 Structure written by MMmdl.
 44 46  0  0  1  0            999 V2000
   46.1070   45.1820   56.9500 P   0  0  0  0  0  0
   45.7790   46.3300   56.0520 O   0  0  0  0  0  0
   47.3820   44.4970   56.6260 O   0  5  0  0  0  0
   45.9720   45.5300   58.3750 O   0  0  0  0  0  0
   43.9110   43.7400   55.6550 P   0  0  0  0  0  0
   42.9750   42.7220   55.9860 O   0  0  0  0  0  0
   43.6030   44.7670   54.6780 O   0  5  0  0  0  0
   45.0410   44.0150   56.7380 O   0  0  0  0  0  0
   45.2280   42.6690   53.2570 P   0  0  0  0  0  0
   46.3800   43.3960   52.7880 O   0  0  0  0  0  0
   44.1830   42.1900   52.3510 O   0  5  0  0  0  0
   44.9170   42.7160   54.7890 O   0  0  0  0  0  0
   46.1720   41.5680   53.3020 O   0  0  0  0  0  0
   46.6090   40.4220   53.5420 C   0  0  0  0  0  0
   46.5200   38.9890   53.3640 C   0  0  1  0  0  0
   46.7850   38.9080   51.9480 O   0  0  0  0  0  0
   47.8080   38.8740   54.1120 C   0  0  1  0  0  0
   47.7130   38.3570   55.4230 O   0  0  0  0  0  0
   48.7190   38.1160   53.1390 C   0  0  1  0  0  0
   48.6320   36.7370   53.4250 O   0  0  0  0  0  0
   48.1330   38.4090   51.7210 C   0  0  2  0  0  0
   48.8460   39.4640   50.9860 N   0  0  0  0  0  0
   48.6160   40.8420   50.9450 C   0  0  0  0  0  0
   49.4250   41.4890   50.1650 N   0  0  0  0  0  0
   50.2320   40.4700   49.6640 C   0  0  0  0  0  0
   51.3080   40.4660   48.7310 C   0  0  0  0  0  0
   51.7210   41.5680   48.1290 N   0  0  0  0  0  0
   51.9120   39.2740   48.4470 N   0  0  0  0  0  0
   51.4930   38.1510   49.0290 C   0  0  0  0  0  0
   50.4910   38.0160   49.9000 N   0  0  0  0  0  0
   49.8920   39.2530   50.1710 C   0  0  0  0  0  0
   46.5992   46.3224   58.8095 H   0  0  0  0  0  0
   47.6492   40.3457   53.1926 H   0  0  0  0  0  0
   46.5714   40.2346   54.6253 H   0  0  0  0  0  0
   45.6654   38.3452   53.6190 H   0  0  0  0  0  0
   48.2020   39.8423   54.4542 H   0  0  0  0  0  0
   47.0751   38.8571   56.1666 H   0  0  0  0  0  0
   49.7910   38.3380   53.2466 H   0  0  0  0  0  0
   49.0003   36.3505   54.3868 H   0  0  0  0  0  0
   48.1676   37.5175   51.0776 H   0  0  0  0  0  0
   47.8360   41.3900   51.4990 H   0  0  0  0  0  0
   51.9400   42.2520   48.8520 H   0  0  0  0  0  0
   52.0360   37.2290   48.7590 H   0  0  0  0  0  0
   52.7492   39.2376   47.7344 H   0  0  0  0  0  0
  1  2  2  0  0  0
  1  3  1  0  0  0
  1  4  1  0  0  0
  1  8  1  0  0  0
  4 32  1  0  0  0
  5  6  2  0  0  0
  5  7  1  0  0  0
  5  8  1  0  0  0
  5 12  1  0  0  0
  9 10  2  0  0  0
  9 11  1  0  0  0
  9 12  1  0  0  0
  9 13  1  0  0  0
 13 14  1  0  0  0
 14 15  1  0  0  0
 14 33  1  0  0  0
 14 34  1  0  0  0
 15 16  1  0  0  0
 15 17  1  0  0  0
 15 35  1  0  0  0
 16 21  1  0  0  0
 17 18  1  0  0  0
 17 19  1  0  0  0
 17 36  1  0  0  0
 18 37  1  0  0  0
 19 20  1  0  0  0
 19 21  1  0  0  0
 19 38  1  0  0  0
 20 39  1  0  0  0
 21 22  1  0  0  0
 21 40  1  0  0  0
 22 23  1  0  0  0
 22 31  1  0  0  0
 23 24  2  0  0  0
 23 41  1  0  0  0
 24 25  1  0  0  0
 25 26  1  0  0  0
 25 31  2  0  0  0
 26 27  2  0  0  0
 26 28  1  0  0  0
 27 42  1  0  0  0
 28 29  1  0  0  0
 28 44  1  0  0  0
 29 30  2  0  0  0
 29 43  1  0  0  0
 30 31  1  0  0  0
M  CHG  3   3  -1   7  -1  11  -1
M  END
> <s_m_source_file>
/cbio/jclab/home/rustenburg/PFK/Epik-Ligands/Results/InProgress/ADENOSINE-5'-TRIPHOSPHATE/pH_4.0/ADENOSINE-5'-TRIPHOSPHATE_pH_4.0-before_epik.mol2

> <i_m_source_file_index>
1

> <r_lp_tautomer_probability>
1.39179185624384e-06

> <r_epik_Ionization_Penalty>
  3.5272

> <r_epik_Ionization_Penalty_Charging>
  3.5231

> <r_epik_Ionization_Penalty_Neutral>
  0.0041

> <r_epik_State_Penalty>
  5.1114

> <r_epik_Charging_Adjusted_Penalty>
8.63450931105416

> <i_epik_Tot_Q>
-3

> <i_epik_Tot_abs_Q>
3

> <s_epik_Chemistry_Notes>
This compound contains an acetal/aminal-like group ( X-CH(R)-Y where X, Y are N, S, or O) that may be acid/base labile, releasing an aldehyde.

$$$$
ATP
                    3D
 Structure written by MMmdl.
 44 46  0  0  1  0            999 V2000
   46.1070   45.1820   56.9500 P   0  0  0  0  0  0
   45.7790   46.3300   56.0520 O   0  0  0  0  0  0
   47.3820   44.4970   56.6260 O   0  5  0  0  0  0
   45.9720   45.5300   58.3750 O   0  0  0  0  0  0
   43.9110   43.7400   55.6550 P   0  0  0  0  0  0
   42.9750   42.7220   55.9860 O   0  0  0  0  0  0
   43.6030   44.7670   54.6780 O   0  5  0  0  0  0
   45.0410   44.0150   56.7380 O   0  0  0  0  0  0
   45.2280   42.6690   53.2570 P   0  0  0  0  0  0
   46.3800   43.3960   52.7880 O   0  0  0  0  0  0
   44.1830   42.1900   52.3510 O   0  5  0  0  0  0
   44.9170   42.7160   54.7890 O   0  0  0  0  0  0
   46.1720   41.5680   53.3020 O   0  0  0  0  0  0
   46.6090   40.4220   53.5420 C   0  0  0  0  0  0
   46.5200   38.9890   53.3640 C   0  0  1  0  0  0
   46.7850   38.9080   51.9480 O   0  0  0  0  0  0
   47.8080   38.8740   54.1120 C   0  0  1  0  0  0
   47.7130   38.3570   55.4230 O   0  0  0  0  0  0
   48.7190   38.1160   53.1390 C   0  0  1  0  0  0
   48.6320   36.7370   53.4250 O   0  0  0  0  0  0
   48.1330   38.4090   51.7210 C   0  0  2  0  0  0
   48.8460   39.4640   50.9860 N   0  0  0  0  0  0
   48.6160   40.8420   50.9450 C   0  0  0  0  0  0
   49.4250   41.4890   50.1650 N   0  0  0  0  0  0
   50.2320   40.4700   49.6640 C   0  0  0  0  0  0
   51.3080   40.4660   48.7310 C   0  0  0  0  0  0
   51.7210   41.5680   48.1290 N   0  0  0  0  0  0
   51.9120   39.2740   48.4470 N   0  0  0  0  0  0
   51.4930   38.1510   49.0290 C   0  0  0  0  0  0
   50.4910   38.0160   49.9000 N   0  0  0  0  0  0
   49.8920   39.2530   50.1710 C   0  0  0  0  0  0
   46.5992   46.3224   58.8095 H   0  0  0  0  0  0
   47.6492   40.3457   53.1926 H   0  0  0  0  0  0
   46.5714   40.2346   54.6253 H   0  0  0  0  0  0
   45.6654   38.3452   53.6190 H   0  0  0  0  0  0
   48.2020   39.8423   54.4542 H   0  0  0  0  0  0
   47.0751   38.8571   56.1666 H   0  0  0  0  0  0
   49.7910   38.3380   53.2466 H   0  0  0  0  0  0
   49.0003   36.3505   54.3868 H   0  0  0  0  0  0
   48.1676   37.5175   51.0776 H   0  0  0  0  0  0
   47.8360   41.3900   51.4990 H   0  0  0  0  0  0
   52.4910   41.5650   47.4600 H   0  0  0  0  0  0
   52.0360   37.2290   48.7590 H   0  0  0  0  0  0
   52.7492   39.2376   47.7344 H   0  0  0  0  0  0
  1  2  2  0  0  0
  1  3  1  0  0  0
  1  4  1  0  0  0
  1  8  1  0  0  0
  4 32  1  0  0  0
  5  6  2  0  0  0
  5  7  1  0  0  0
  5  8  1  0  0  0
  5 12  1  0  0  0
  9 10  2  0  0  0
  9 11  1  0  0  0
  9 12  1  0  0  0
  9 13  1  0  0  0
 13 14  1  0  0  0
 14 15  1  0  0  0
 14 33  1  0  0  0
 14 34  1  0  0  0
 15 16  1  0  0  0
 15 17  1  0  0  0
 15 35  1  0  0  0
 16 21  1  0  0  0
 17 18  1  0  0  0
 17 19  1  0  0  0
 17 36  1  0  0  0
 18 37  1  0  0  0
 19 20  1  0  0  0
 19 21  1  0  0  0
 19 38  1  0  0  0
 20 39  1  0  0  0
 21 22  1  0  0  0
 21 40  1  0  0  0
 22 23  1  0  0  0
 22 31  1  0  0  0
 23 24  2  0  0  0
 23 41  1  0  0  0
 24 25  1  0  0  0
 25 26  1  0  0  0
 25 31  2  0  0  0
 26 27  2  0  0  0
 26 28  1  0  0  0
 27 42  1  0  0  0
 28 29  1  0  0  0
 28 44  1  0  0  0
 29 30  2  0  0  0
 29 43  1  0  0  0
 30 31  1  0  0  0
M  CHG  3   3  -1   7  -1  11  -1
M  END
> <s_m_source_file>
/cbio/jclab/home/rustenburg/PFK/Epik-Ligands/Results/InProgress/ADENOSINE-5'-TRIPHOSPHATE/pH_4.0/ADENOSINE-5'-TRIPHOSPHATE_pH_4.0-before_epik.mol2

> <i_m_source_file_index>
1

> <r_lp_tautomer_probability>
1.39179185624384e-06

> <r_epik_Ionization_Penalty>
  3.5272

> <r_epik_Ionization_Penalty_Charging>
  3.5231

> <r_epik_Ionization_Penalty_Neutral>
  0.0041

> <r_epik_State_Penalty>
  5.1114

> <r_epik_Charging_Adjusted_Penalty>
8.63450931105416

> <i_epik_Tot_Q>
-3

> <i_epik_Tot_abs_Q>
3

> <s_epik_Chemistry_Notes>
This compound contains an acetal/aminal-like group ( X-CH(R)-Y where X, Y are N, S, or O) that may be acid/base labile, releasing an aldehyde.

$$$$
ATP
                    3D
 Structure written by MMmdl.
 47 49  0  0  1  0            999 V2000
   46.1070   45.1820   56.9500 P   0  0  0  0  0  0
   45.7790   46.3300   56.0520 O   0  0  0  0  0  0
   47.3820   44.4970   56.6260 O   0  5  0  0  0  0
   45.9720   45.5300   58.3750 O   0  0  0  0  0  0
   43.9110   43.7400   55.6550 P   0  0  1  0  0  0
   42.9750   42.7220   55.9860 O   0  0  0  0  0  0
   43.6030   44.7670   54.6780 O   0  0  0  0  0  0
   45.0410   44.0150   56.7380 O   0  0  0  0  0  0
   45.2280   42.6690   53.2570 P   0  0  2  0  0  0
   46.3800   43.3960   52.7880 O   0  0  0  0  0  0
   44.1830   42.1900   52.3510 O   0  0  0  0  0  0
   44.9170   42.7160   54.7890 O   0  0  0  0  0  0
   46.1720   41.5680   53.3020 O   0  0  0  0  0  0
   46.6090   40.4220   53.5420 C   0  0  0  0  0  0
   46.5200   38.9890   53.3640 C   0  0  1  0  0  0
   46.7850   38.9080   51.9480 O   0  0  0  0  0  0
   47.8080   38.8740   54.1120 C   0  0  1  0  0  0
   47.7130   38.3570   55.4230 O   0  0  0  0  0  0
   48.7190   38.1160   53.1390 C   0  0  1  0  0  0
   48.6320   36.7370   53.4250 O   0  0  0  0  0  0
   48.1330   38.4090   51.7210 C   0  0  2  0  0  0
   48.8460   39.4640   50.9860 N   0  0  0  0  0  0
   48.6160   40.8420   50.9450 C   0  0  0  0  0  0
   49.4250   41.4890   50.1650 N   0  3  0  0  0  0
   50.2320   40.4700   49.6640 C   0  0  0  0  0  0
   51.3080   40.4660   48.7310 C   0  0  0  0  0  0
   51.7210   41.5680   48.1290 N   0  0  0  0  0  0
   51.9120   39.2740   48.4470 N   0  0  0  0  0  0
   51.4930   38.1510   49.0290 C   0  0  0  0  0  0
   50.4910   38.0160   49.9000 N   0  0  0  0  0  0
   49.8920   39.2530   50.1710 C   0  0  0  0  0  0
   46.5992   46.3224   58.8095 H   0  0  0  0  0  0
   42.9452   45.6055   54.9502 H   0  0  0  0  0  0
   43.3173   42.8293   52.1230 H   0  0  0  0  0  0
   47.6492   40.3457   53.1926 H   0  0  0  0  0  0
   46.5714   40.2346   54.6253 H   0  0  0  0  0  0
   45.6654   38.3452   53.6190 H   0  0  0  0  0  0
   48.2020   39.8423   54.4542 H   0  0  0  0  0  0
   47.0751   38.8571   56.1666 H   0  0  0  0  0  0
   49.7910   38.3380   53.2466 H   0  0  0  0  0  0
   49.0003   36.3505   54.3868 H   0  0  0  0  0  0
   48.1676   37.5175   51.0776 H   0  0  0  0  0  0
   47.8360   41.3900   51.4990 H   0  0  0  0  0  0
   51.2389   42.5309   48.3533 H   0  0  0  0  0  0
   52.5468   41.5221   47.4038 H   0  0  0  0  0  0
   52.0360   37.2290   48.7590 H   0  0  0  0  0  0
   49.3328   42.5801   50.0600 H   0  0  0  0  0  0
  1  2  2  0  0  0
  1  3  1  0  0  0
  1  4  1  0  0  0
  1  8  1  0  0  0
  4 32  1  0  0  0
  5  6  2  0  0  0
  5  7  1  0  0  0
  5  8  1  0  0  0
  5 12  1  0  0  0
  7 33  1  0  0  0
  9 10  2  0  0  0
  9 11  1  0  0  0
  9 12  1  0  0  0
  9 13  1  0  0  0
 11 34  1  0  0  0
 13 14  1  0  0  0
 14 15  1  0  0  0
 14 35  1  0  0  0
 14 36  1  0  0  0
 15 16  1  0  0  0
 15 17  1  0  0  0
 15 37  1  0  0  0
 16 21  1  0  0  0
 17 18  1  0  0  0
 17 19  1  0  0  0
 17 38  1  0  0  0
 18 39  1  0  0  0
 19 20  1  0  0  0
 19 21  1  0  0  0
 19 40  1  0  0  0
 20 41  1  0  0  0
 21 22  1  0  0  0
 21 42  1  0  0  0
 22 23  1  0  0  0
 22 31  1  0  0  0
 23 24  2  0  0  0
 23 43  1  0  0  0
 24 25  1  0  0  0
 24 47  1  0  0  0
 25 26  2  0  0  0
 25 31  1  0  0  0
 26 27  1  0  0  0
 26 28  1  0  0  0
 27 44  1  0  0  0
 27 45  1  0  0  0
 28 29  2  0  0  0
 29 30  1  0  0  0
 29 46  1  0  0  0
 30 31  2  0  0  0
M  CHG  2   3  -1  24   1
M  END
> <s_m_source_file>
/cbio/jclab/home/rustenburg/PFK/Epik-Ligands/Results/InProgress/ADENOSINE-5'-TRIPHOSPHATE/pH_4.0/ADENOSINE-5'-TRIPHOSPHATE_pH_4.0-before_epik.mol2

> <i_m_source_file_index>
1

> <r_epik_Ionization_Penalty>
  4.8700

> <r_epik_Ionization_Penalty_Charging>
  1.9245

> <r_epik_Ionization_Penalty_Neutral>
  2.9455

> <r_epik_State_Penalty>
  5.1328

> <r_epik_Charging_Adjusted_Penalty>
7.05725174137894

> <i_epik_Tot_Q>
0

> <i_epik_Tot_abs_Q>
2

> <s_epik_Chemistry_Notes>
This compound contains an acetal/aminal-like group ( X-CH(R)-Y where X, Y are N, S, or O) that may be acid/base labile, releasing an aldehyde.

$$$$
ATP
                    3D
 Structure written by MMmdl.
 45 47  0  0  1  0            999 V2000
   46.1070   45.1820   56.9500 P   0  0  0  0  0  0
   45.7790   46.3300   56.0520 O   0  0  0  0  0  0
   47.3820   44.4970   56.6260 O   0  5  0  0  0  0
   45.9720   45.5300   58.3750 O   0  5  0  0  0  0
   43.9110   43.7400   55.6550 P   0  0  0  0  0  0
   42.9750   42.7220   55.9860 O   0  0  0  0  0  0
   43.6030   44.7670   54.6780 O   0  5  0  0  0  0
   45.0410   44.0150   56.7380 O   0  0  0  0  0  0
   45.2280   42.6690   53.2570 P   0  0  2  0  0  0
   46.3800   43.3960   52.7880 O   0  0  0  0  0  0
   44.1830   42.1900   52.3510 O   0  0  0  0  0  0
   44.9170   42.7160   54.7890 O   0  0  0  0  0  0
   46.1720   41.5680   53.3020 O   0  0  0  0  0  0
   46.6090   40.4220   53.5420 C   0  0  0  0  0  0
   46.5200   38.9890   53.3640 C   0  0  1  0  0  0
   46.7850   38.9080   51.9480 O   0  0  0  0  0  0
   47.8080   38.8740   54.1120 C   0  0  1  0  0  0
   47.7130   38.3570   55.4230 O   0  0  0  0  0  0
   48.7190   38.1160   53.1390 C   0  0  1  0  0  0
   48.6320   36.7370   53.4250 O   0  0  0  0  0  0
   48.1330   38.4090   51.7210 C   0  0  2  0  0  0
   48.8460   39.4640   50.9860 N   0  0  0  0  0  0
   48.6160   40.8420   50.9450 C   0  0  0  0  0  0
   49.4250   41.4890   50.1650 N   0  0  0  0  0  0
   50.2320   40.4700   49.6640 C   0  0  0  0  0  0
   51.3080   40.4660   48.7310 C   0  0  0  0  0  0
   51.7210   41.5680   48.1290 N   0  0  0  0  0  0
   51.9120   39.2740   48.4470 N   0  3  0  0  0  0
   51.4930   38.1510   49.0290 C   0  0  0  0  0  0
   50.4910   38.0160   49.9000 N   0  0  0  0  0  0
   49.8920   39.2530   50.1710 C   0  0  0  0  0  0
   43.3173   42.8293   52.1230 H   0  0  0  0  0  0
   47.6492   40.3457   53.1926 H   0  0  0  0  0  0
   46.5714   40.2346   54.6253 H   0  0  0  0  0  0
   45.6654   38.3452   53.6190 H   0  0  0  0  0  0
   48.2020   39.8423   54.4542 H   0  0  0  0  0  0
   47.0751   38.8571   56.1666 H   0  0  0  0  0  0
   49.7910   38.3380   53.2466 H   0  0  0  0  0  0
   49.0003   36.3505   54.3868 H   0  0  0  0  0  0
   48.1676   37.5175   51.0776 H   0  0  0  0  0  0
   47.8360   41.3900   51.4990 H   0  0  0  0  0  0
   51.2389   42.5309   48.3533 H   0  0  0  0  0  0
   52.5468   41.5221   47.4038 H   0  0  0  0  0  0
   52.0360   37.2290   48.7590 H   0  0  0  0  0  0
   52.7492   39.2376   47.7344 H   0  0  0  0  0  0
  1  2  2  0  0  0
  1  3  1  0  0  0
  1  4  1  0  0  0
  1  8  1  0  0  0
  5  6  2  0  0  0
  5  7  1  0  0  0
  5  8  1  0  0  0
  5 12  1  0  0  0
  9 10  2  0  0  0
  9 11  1  0  0  0
  9 12  1  0  0  0
  9 13  1  0  0  0
 11 32  1  0  0  0
 13 14  1  0  0  0
 14 15  1  0  0  0
 14 33  1  0  0  0
 14 34  1  0  0  0
 15 16  1  0  0  0
 15 17  1  0  0  0
 15 35  1  0  0  0
 16 21  1  0  0  0
 17 18  1  0  0  0
 17 19  1  0  0  0
 17 36  1  0  0  0
 18 37  1  0  0  0
 19 20  1  0  0  0
 19 21  1  0  0  0
 19 38  1  0  0  0
 20 39  1  0  0  0
 21 22  1  0  0  0
 21 40  1  0  0  0
 22 23  1  0  0  0
 22 31  1  0  0  0
 23 24  2  0  0  0
 23 41  1  0  0  0
 24 25  1  0  0  0
 25 26  2  0  0  0
 25 31  1  0  0  0
 26 27  1  0  0  0
 26 28  1  0  0  0
 27 42  1  0  0  0
 27 43  1  0  0  0
 28 29  2  0  0  0
 28 45  1  0  0  0
 29 30  1  0  0  0
 29 44  1  0  0  0
 30 31  2  0  0  0
M  CHG  4   3  -1   4  -1   7  -1  28   1
M  END
> <s_m_source_file>
/cbio/jclab/home/rustenburg/PFK/Epik-Ligands/Results/InProgress/ADENOSINE-5'-TRIPHOSPHATE/pH_4.0/ADENOSINE-5'-TRIPHOSPHATE_pH_4.0-before_epik.mol2

> <i_m_source_file_index>
1

> <r_epik_Ionization_Penalty>
  4.3921

> <r_epik_Ionization_Penalty_Charging>
  3.6876

> <r_epik_Ionization_Penalty_Neutral>
  0.7045

> <r_epik_State_Penalty>
  5.2460

> <r_epik_Charging_Adjusted_Penalty>
8.93355131562313

> <i_epik_Tot_Q>
-2

> <i_epik_Tot_abs_Q>
4

> <s_epik_Chemistry_Notes>
This compound contains an acetal/aminal-like group ( X-CH(R)-Y where X, Y are N, S, or O) that may be acid/base labile, releasing an aldehyde.

$$$$
ATP
                    3D
 Structure written by MMmdl.
 45 47  0  0  1  0            999 V2000
   46.1070   45.1820   56.9500 P   0  0  0  0  0  0
   45.7790   46.3300   56.0520 O   0  0  0  0  0  0
   47.3820   44.4970   56.6260 O   0  5  0  0  0  0
   45.9720   45.5300   58.3750 O   0  5  0  0  0  0
   43.9110   43.7400   55.6550 P   0  0  1  0  0  0
   42.9750   42.7220   55.9860 O   0  0  0  0  0  0
   43.6030   44.7670   54.6780 O   0  0  0  0  0  0
   45.0410   44.0150   56.7380 O   0  0  0  0  0  0
   45.2280   42.6690   53.2570 P   0  0  2  0  0  0
   46.3800   43.3960   52.7880 O   0  0  0  0  0  0
   44.1830   42.1900   52.3510 O   0  0  0  0  0  0
   44.9170   42.7160   54.7890 O   0  0  0  0  0  0
   46.1720   41.5680   53.3020 O   0  0  0  0  0  0
   46.6090   40.4220   53.5420 C   0  0  0  0  0  0
   46.5200   38.9890   53.3640 C   0  0  1  0  0  0
   46.7850   38.9080   51.9480 O   0  0  0  0  0  0
   47.8080   38.8740   54.1120 C   0  0  1  0  0  0
   47.7130   38.3570   55.4230 O   0  0  0  0  0  0
   48.7190   38.1160   53.1390 C   0  0  1  0  0  0
   48.6320   36.7370   53.4250 O   0  0  0  0  0  0
   48.1330   38.4090   51.7210 C   0  0  2  0  0  0
   48.8460   39.4640   50.9860 N   0  0  0  0  0  0
   48.6160   40.8420   50.9450 C   0  0  0  0  0  0
   49.4250   41.4890   50.1650 N   0  0  0  0  0  0
   50.2320   40.4700   49.6640 C   0  0  0  0  0  0
   51.3080   40.4660   48.7310 C   0  0  0  0  0  0
   51.7210   41.5680   48.1290 N   0  0  0  0  0  0
   51.9120   39.2740   48.4470 N   0  0  0  0  0  0
   51.4930   38.1510   49.0290 C   0  0  0  0  0  0
   50.4910   38.0160   49.9000 N   0  0  0  0  0  0
   49.8920   39.2530   50.1710 C   0  0  0  0  0  0
   42.9452   45.6055   54.9502 H   0  0  0  0  0  0
   43.3173   42.8293   52.1230 H   0  0  0  0  0  0
   47.6492   40.3457   53.1926 H   0  0  0  0  0  0
   46.5714   40.2346   54.6253 H   0  0  0  0  0  0
   45.6654   38.3452   53.6190 H   0  0  0  0  0  0
   48.2020   39.8423   54.4542 H   0  0  0  0  0  0
   47.0751   38.8571   56.1666 H   0  0  0  0  0  0
   49.7910   38.3380   53.2466 H   0  0  0  0  0  0
   49.0003   36.3505   54.3868 H   0  0  0  0  0  0
   48.1676   37.5175   51.0776 H   0  0  0  0  0  0
   47.8360   41.3900   51.4990 H   0  0  0  0  0  0
   51.2389   42.5309   48.3533 H   0  0  0  0  0  0
   52.5468   41.5221   47.4038 H   0  0  0  0  0  0
   52.0360   37.2290   48.7590 H   0  0  0  0  0  0
  1  2  2  0  0  0
  1  3  1  0  0  0
  1  4  1  0  0  0
  1  8  1  0  0  0
  5  6  2  0  0  0
  5  7  1  0  0  0
  5  8  1  0  0  0
  5 12  1  0  0  0
  7 32  1  0  0  0
  9 10  2  0  0  0
  9 11  1  0  0  0
  9 12  1  0  0  0
  9 13  1  0  0  0
 11 33  1  0  0  0
 13 14  1  0  0  0
 14 15  1  0  0  0
 14 34  1  0  0  0
 14 35  1  0  0  0
 15 16  1  0  0  0
 15 17  1  0  0  0
 15 36  1  0  0  0
 16 21  1  0  0  0
 17 18  1  0  0  0
 17 19  1  0  0  0
 17 37  1  0  0  0
 18 38  1  0  0  0
 19 20  1  0  0  0
 19 21  1  0  0  0
 19 39  1  0  0  0
 20 40  1  0  0  0
 21 22  1  0  0  0
 21 41  1  0  0  0
 22 23  1  0  0  0
 22 31  1  0  0  0
 23 24  2  0  0  0
 23 42  1  0  0  0
 24 25  1  0  0  0
 25 26  2  0  0  0
 25 31  1  0  0  0
 26 27  1  0  0  0
 26 28  1  0  0  0
 27 43  1  0  0  0
 27 44  1  0  0  0
 28 29  2  0  0  0
 29 30  1  0  0  0
 29 45  1  0  0  0
 30 31  2  0  0  0
M  CHG  2   3  -1   4  -1
M  END
> <s_m_source_file>
/cbio/jclab/home/rustenburg/PFK/Epik-Ligands/Results/InProgress/ADENOSINE-5'-TRIPHOSPHATE/pH_4.0/ADENOSINE-5'-TRIPHOSPHATE_pH_4.0-before_epik.mol2

> <i_m_source_file_index>
1

> <r_epik_Ionization_Penalty>
  4.1648

> <r_epik_Ionization_Penalty_Charging>
  2.0814

> <r_epik_Ionization_Penalty_Neutral>
  2.0834

> <r_epik_State_Penalty>
  5.2595

> <r_epik_Charging_Adjusted_Penalty>
7.34095482215277

> <i_epik_Tot_Q>
-2

> <i_epik_Tot_abs_Q>
2

> <s_epik_Chemistry_Notes>
This compound contains an acetal/aminal-like group ( X-CH(R)-Y where X, Y are N, S, or O) that may be acid/base labile, releasing an aldehyde.

$$$$
ATP
                    3D
 Structure written by MMmdl.
 48 50  0  0  1  0            999 V2000
   46.1070   45.1820   56.9500 P   0  0  0  0  0  0
   45.7790   46.3300   56.0520 O   0  0  0  0  0  0
   47.3820   44.4970   56.6260 O   0  0  0  0  0  0
   45.9720   45.5300   58.3750 O   0  0  0  0  0  0
   43.9110   43.7400   55.6550 P   0  0  1  0  0  0
   42.9750   42.7220   55.9860 O   0  0  0  0  0  0
   43.6030   44.7670   54.6780 O   0  0  0  0  0  0
   45.0410   44.0150   56.7380 O   0  0  0  0  0  0
   45.2280   42.6690   53.2570 P   0  0  2  0  0  0
   46.3800   43.3960   52.7880 O   0  0  0  0  0  0
   44.1830   42.1900   52.3510 O   0  0  0  0  0  0
   44.9170   42.7160   54.7890 O   0  0  0  0  0  0
   46.1720   41.5680   53.3020 O   0  0  0  0  0  0
   46.6090   40.4220   53.5420 C   0  0  0  0  0  0
   46.5200   38.9890   53.3640 C   0  0  1  0  0  0
   46.7850   38.9080   51.9480 O   0  0  0  0  0  0
   47.8080   38.8740   54.1120 C   0  0  1  0  0  0
   47.7130   38.3570   55.4230 O   0  0  0  0  0  0
   48.7190   38.1160   53.1390 C   0  0  1  0  0  0
   48.6320   36.7370   53.4250 O   0  0  0  0  0  0
   48.1330   38.4090   51.7210 C   0  0  2  0  0  0
   48.8460   39.4640   50.9860 N   0  0  0  0  0  0
   48.6160   40.8420   50.9450 C   0  0  0  0  0  0
   49.4250   41.4890   50.1650 N   0  0  0  0  0  0
   50.2320   40.4700   49.6640 C   0  0  0  0  0  0
   51.3080   40.4660   48.7310 C   0  0  0  0  0  0
   51.7210   41.5680   48.1290 N   0  0  0  0  0  0
   51.9120   39.2740   48.4470 N   0  3  0  0  0  0
   51.4930   38.1510   49.0290 C   0  0  0  0  0  0
   50.4910   38.0160   49.9000 N   0  0  0  0  0  0
   49.8920   39.2530   50.1710 C   0  0  0  0  0  0
   48.3320   45.0490   56.6795 H   0  0  0  0  0  0
   46.5992   46.3224   58.8095 H   0  0  0  0  0  0
   42.9452   45.6055   54.9502 H   0  0  0  0  0  0
   43.3173   42.8293   52.1230 H   0  0  0  0  0  0
   47.6492   40.3457   53.1926 H   0  0  0  0  0  0
   46.5714   40.2346   54.6253 H   0  0  0  0  0  0
   45.6654   38.3452   53.6190 H   0  0  0  0  0  0
   48.2020   39.8423   54.4542 H   0  0  0  0  0  0
   47.0751   38.8571   56.1666 H   0  0  0  0  0  0
   49.7910   38.3380   53.2466 H   0  0  0  0  0  0
   49.0003   36.3505   54.3868 H   0  0  0  0  0  0
   48.1676   37.5175   51.0776 H   0  0  0  0  0  0
   47.8360   41.3900   51.4990 H   0  0  0  0  0  0
   51.2389   42.5309   48.3533 H   0  0  0  0  0  0
   52.5468   41.5221   47.4038 H   0  0  0  0  0  0
   52.0360   37.2290   48.7590 H   0  0  0  0  0  0
   52.7492   39.2376   47.7344 H   0  0  0  0  0  0
  1  2  2  0  0  0
  1  3  1  0  0  0
  1  4  1  0  0  0
  1  8  1  0  0  0
  3 32  1  0  0  0
  4 33  1  0  0  0
  5  6  2  0  0  0
  5  7  1  0  0  0
  5  8  1  0  0  0
  5 12  1  0  0  0
  7 34  1  0  0  0
  9 10  2  0  0  0
  9 11  1  0  0  0
  9 12  1  0  0  0
  9 13  1  0  0  0
 11 35  1  0  0  0
 13 14  1  0  0  0
 14 15  1  0  0  0
 14 36  1  0  0  0
 14 37  1  0  0  0
 15 16  1  0  0  0
 15 17  1  0  0  0
 15 38  1  0  0  0
 16 21  1  0  0  0
 17 18  1  0  0  0
 17 19  1  0  0  0
 17 39  1  0  0  0
 18 40  1  0  0  0
 19 20  1  0  0  0
 19 21  1  0  0  0
 19 41  1  0  0  0
 20 42  1  0  0  0
 21 22  1  0  0  0
 21 43  1  0  0  0
 22 23  1  0  0  0
 22 31  1  0  0  0
 23 24  2  0  0  0
 23 44  1  0  0  0
 24 25  1  0  0  0
 25 26  2  0  0  0
 25 31  1  0  0  0
 26 27  1  0  0  0
 26 28  1  0  0  0
 27 45  1  0  0  0
 27 46  1  0  0  0
 28 29  2  0  0  0
 28 48  1  0  0  0
 29 30  1  0  0  0
 29 47  1  0  0  0
 30 31  2  0  0  0
M  CHG  1  28   1
M  END
> <s_m_source_file>
/cbio/jclab/home/rustenburg/PFK/Epik-Ligands/Results/InProgress/ADENOSINE-5'-TRIPHOSPHATE/pH_4.0/ADENOSINE-5'-TRIPHOSPHATE_pH_4.0-before_epik.mol2

> <i_m_source_file_index>
1

> <r_lp_tautomer_probability>
0.978911883040575

> <r_epik_Ionization_Penalty>
  5.5840

> <r_epik_Ionization_Penalty_Charging>
  0.5413

> <r_epik_Ionization_Penalty_Neutral>
  5.0428

> <r_epik_State_Penalty>
  5.4168

> <r_epik_Charging_Adjusted_Penalty>
5.95809664737142

> <i_epik_Tot_Q>
1

> <i_epik_Tot_abs_Q>
1

> <s_epik_Chemistry_Notes>
This compound contains an acetal/aminal-like group ( X-CH(R)-Y where X, Y are N, S, or O) that may be acid/base labile, releasing an aldehyde.

$$$$
ATP
                    3D
 Structure written by MMmdl.
 47 49  0  0  1  0            999 V2000
   46.1070   45.1820   56.9500 P   0  0  0  0  0  0
   45.7790   46.3300   56.0520 O   0  0  0  0  0  0
   47.3820   44.4970   56.6260 O   0  0  0  0  0  0
   45.9720   45.5300   58.3750 O   0  0  0  0  0  0
   43.9110   43.7400   55.6550 P   0  0  1  0  0  0
   42.9750   42.7220   55.9860 O   0  0  0  0  0  0
   43.6030   44.7670   54.6780 O   0  0  0  0  0  0
   45.0410   44.0150   56.7380 O   0  0  0  0  0  0
   45.2280   42.6690   53.2570 P   0  0  0  0  0  0
   46.3800   43.3960   52.7880 O   0  0  0  0  0  0
   44.1830   42.1900   52.3510 O   0  5  0  0  0  0
   44.9170   42.7160   54.7890 O   0  0  0  0  0  0
   46.1720   41.5680   53.3020 O   0  0  0  0  0  0
   46.6090   40.4220   53.5420 C   0  0  0  0  0  0
   46.5200   38.9890   53.3640 C   0  0  1  0  0  0
   46.7850   38.9080   51.9480 O   0  0  0  0  0  0
   47.8080   38.8740   54.1120 C   0  0  1  0  0  0
   47.7130   38.3570   55.4230 O   0  0  0  0  0  0
   48.7190   38.1160   53.1390 C   0  0  1  0  0  0
   48.6320   36.7370   53.4250 O   0  0  0  0  0  0
   48.1330   38.4090   51.7210 C   0  0  2  0  0  0
   48.8460   39.4640   50.9860 N   0  0  0  0  0  0
   48.6160   40.8420   50.9450 C   0  0  0  0  0  0
   49.4250   41.4890   50.1650 N   0  3  0  0  0  0
   50.2320   40.4700   49.6640 C   0  0  0  0  0  0
   51.3080   40.4660   48.7310 C   0  0  0  0  0  0
   51.7210   41.5680   48.1290 N   0  0  0  0  0  0
   51.9120   39.2740   48.4470 N   0  0  0  0  0  0
   51.4930   38.1510   49.0290 C   0  0  0  0  0  0
   50.4910   38.0160   49.9000 N   0  0  0  0  0  0
   49.8920   39.2530   50.1710 C   0  0  0  0  0  0
   48.3320   45.0490   56.6795 H   0  0  0  0  0  0
   46.5992   46.3224   58.8095 H   0  0  0  0  0  0
   42.9452   45.6055   54.9502 H   0  0  0  0  0  0
   47.6492   40.3457   53.1926 H   0  0  0  0  0  0
   46.5714   40.2346   54.6253 H   0  0  0  0  0  0
   45.6654   38.3452   53.6190 H   0  0  0  0  0  0
   48.2020   39.8423   54.4542 H   0  0  0  0  0  0
   47.0751   38.8571   56.1666 H   0  0  0  0  0  0
   49.7910   38.3380   53.2466 H   0  0  0  0  0  0
   49.0003   36.3505   54.3868 H   0  0  0  0  0  0
   48.1676   37.5175   51.0776 H   0  0  0  0  0  0
   47.8360   41.3900   51.4990 H   0  0  0  0  0  0
   51.2389   42.5309   48.3533 H   0  0  0  0  0  0
   52.5468   41.5221   47.4038 H   0  0  0  0  0  0
   52.0360   37.2290   48.7590 H   0  0  0  0  0  0
   49.3328   42.5801   50.0600 H   0  0  0  0  0  0
  1  2  2  0  0  0
  1  3  1  0  0  0
  1  4  1  0  0  0
  1  8  1  0  0  0
  3 32  1  0  0  0
  4 33  1  0  0  0
  5  6  2  0  0  0
  5  7  1  0  0  0
  5  8  1  0  0  0
  5 12  1  0  0  0
  7 34  1  0  0  0
  9 10  2  0  0  0
  9 11  1  0  0  0
  9 12  1  0  0  0
  9 13  1  0  0  0
 13 14  1  0  0  0
 14 15  1  0  0  0
 14 35  1  0  0  0
 14 36  1  0  0  0
 15 16  1  0  0  0
 15 17  1  0  0  0
 15 37  1  0  0  0
 16 21  1  0  0  0
 17 18  1  0  0  0
 17 19  1  0  0  0
 17 38  1  0  0  0
 18 39  1  0  0  0
 19 20  1  0  0  0
 19 21  1  0  0  0
 19 40  1  0  0  0
 20 41  1  0  0  0
 21 22  1  0  0  0
 21 42  1  0  0  0
 22 23  1  0  0  0
 22 31  1  0  0  0
 23 24  2  0  0  0
 23 43  1  0  0  0
 24 25  1  0  0  0
 24 47  1  0  0  0
 25 26  2  0  0  0
 25 31  1  0  0  0
 26 27  1  0  0  0
 26 28  1  0  0  0
 27 44  1  0  0  0
 27 45  1  0  0  0
 28 29  2  0  0  0
 29 30  1  0  0  0
 29 46  1  0  0  0
 30 31  2  0  0  0
M  CHG  2  11  -1  24   1
M  END
> <s_m_source_file>
/cbio/jclab/home/rustenburg/PFK/Epik-Ligands/Results/InProgress/ADENOSINE-5'-TRIPHOSPHATE/pH_4.0/ADENOSINE-5'-TRIPHOSPHATE_pH_4.0-before_epik.mol2

> <i_m_source_file_index>
1

> <r_epik_Ionization_Penalty>
  4.9758

> <r_epik_Ionization_Penalty_Charging>
  1.9560

> <r_epik_Ionization_Penalty_Neutral>
  3.0198

> <r_epik_State_Penalty>
  5.4713

> <r_epik_Charging_Adjusted_Penalty>
7.42723992464523

> <i_epik_Tot_Q>
0

> <i_epik_Tot_abs_Q>
2

> <s_epik_Chemistry_Notes>
This compound contains an acetal/aminal-like group ( X-CH(R)-Y where X, Y are N, S, or O) that may be acid/base labile, releasing an aldehyde.

$$$$
ATP
                    3D
 Structure written by MMmdl.
 46 48  0  0  1  0            999 V2000
   46.1070   45.1820   56.9500 P   0  0  0  0  0  0
   45.7790   46.3300   56.0520 O   0  0  0  0  0  0
   47.3820   44.4970   56.6260 O   0  5  0  0  0  0
   45.9720   45.5300   58.3750 O   0  0  0  0  0  0
   43.9110   43.7400   55.6550 P   0  0  0  0  0  0
   42.9750   42.7220   55.9860 O   0  0  0  0  0  0
   43.6030   44.7670   54.6780 O   0  5  0  0  0  0
   45.0410   44.0150   56.7380 O   0  0  0  0  0  0
   45.2280   42.6690   53.2570 P   0  0  2  0  0  0
   46.3800   43.3960   52.7880 O   0  0  0  0  0  0
   44.1830   42.1900   52.3510 O   0  0  0  0  0  0
   44.9170   42.7160   54.7890 O   0  0  0  0  0  0
   46.1720   41.5680   53.3020 O   0  0  0  0  0  0
   46.6090   40.4220   53.5420 C   0  0  0  0  0  0
   46.5200   38.9890   53.3640 C   0  0  1  0  0  0
   46.7850   38.9080   51.9480 O   0  0  0  0  0  0
   47.8080   38.8740   54.1120 C   0  0  1  0  0  0
   47.7130   38.3570   55.4230 O   0  0  0  0  0  0
   48.7190   38.1160   53.1390 C   0  0  1  0  0  0
   48.6320   36.7370   53.4250 O   0  0  0  0  0  0
   48.1330   38.4090   51.7210 C   0  0  2  0  0  0
   48.8460   39.4640   50.9860 N   0  0  0  0  0  0
   48.6160   40.8420   50.9450 C   0  0  0  0  0  0
   49.4250   41.4890   50.1650 N   0  3  0  0  0  0
   50.2320   40.4700   49.6640 C   0  0  0  0  0  0
   51.3080   40.4660   48.7310 C   0  0  0  0  0  0
   51.7210   41.5680   48.1290 N   0  0  0  0  0  0
   51.9120   39.2740   48.4470 N   0  0  0  0  0  0
   51.4930   38.1510   49.0290 C   0  0  0  0  0  0
   50.4910   38.0160   49.9000 N   0  0  0  0  0  0
   49.8920   39.2530   50.1710 C   0  0  0  0  0  0
   46.5992   46.3224   58.8095 H   0  0  0  0  0  0
   43.3173   42.8293   52.1230 H   0  0  0  0  0  0
   47.6492   40.3457   53.1926 H   0  0  0  0  0  0
   46.5714   40.2346   54.6253 H   0  0  0  0  0  0
   45.6654   38.3452   53.6190 H   0  0  0  0  0  0
   48.2020   39.8423   54.4542 H   0  0  0  0  0  0
   47.0751   38.8571   56.1666 H   0  0  0  0  0  0
   49.7910   38.3380   53.2466 H   0  0  0  0  0  0
   49.0003   36.3505   54.3868 H   0  0  0  0  0  0
   48.1676   37.5175   51.0776 H   0  0  0  0  0  0
   47.8360   41.3900   51.4990 H   0  0  0  0  0  0
   51.9400   42.2520   48.8520 H   0  0  0  0  0  0
   52.0360   37.2290   48.7590 H   0  0  0  0  0  0
   52.7492   39.2376   47.7344 H   0  0  0  0  0  0
   49.3328   42.5801   50.0600 H   0  0  0  0  0  0
  1  2  2  0  0  0
  1  3  1  0  0  0
  1  4  1  0  0  0
  1  8  1  0  0  0
  4 32  1  0  0  0
  5  6  2  0  0  0
  5  7  1  0  0  0
  5  8  1  0  0  0
  5 12  1  0  0  0
  9 10  2  0  0  0
  9 11  1  0  0  0
  9 12  1  0  0  0
  9 13  1  0  0  0
 11 33  1  0  0  0
 13 14  1  0  0  0
 14 15  1  0  0  0
 14 34  1  0  0  0
 14 35  1  0  0  0
 15 16  1  0  0  0
 15 17  1  0  0  0
 15 36  1  0  0  0
 16 21  1  0  0  0
 17 18  1  0  0  0
 17 19  1  0  0  0
 17 37  1  0  0  0
 18 38  1  0  0  0
 19 20  1  0  0  0
 19 21  1  0  0  0
 19 39  1  0  0  0
 20 40  1  0  0  0
 21 22  1  0  0  0
 21 41  1  0  0  0
 22 23  1  0  0  0
 22 31  1  0  0  0
 23 24  2  0  0  0
 23 42  1  0  0  0
 24 25  1  0  0  0
 24 46  1  0  0  0
 25 26  1  0  0  0
 25 31  2  0  0  0
 26 27  2  0  0  0
 26 28  1  0  0  0
 27 43  1  0  0  0
 28 29  1  0  0  0
 28 45  1  0  0  0
 29 30  2  0  0  0
 29 44  1  0  0  0
 30 31  1  0  0  0
M  CHG  3   3  -1   7  -1  24   1
M  END
> <s_m_source_file>
/cbio/jclab/home/rustenburg/PFK/Epik-Ligands/Results/InProgress/ADENOSINE-5'-TRIPHOSPHATE/pH_4.0/ADENOSINE-5'-TRIPHOSPHATE_pH_4.0-before_epik.mol2

> <i_m_source_file_index>
1

> <r_epik_Ionization_Penalty>
  1.8583

> <r_epik_Ionization_Penalty_Charging>
  0.6730

> <r_epik_Ionization_Penalty_Neutral>
  1.1853

> <r_epik_State_Penalty>
  5.5420

> <r_epik_Charging_Adjusted_Penalty>
6.21504641046249

> <i_epik_Tot_Q>
-1

> <i_epik_Tot_abs_Q>
3

> <s_epik_Chemistry_Notes>
This compound contains an acetal/aminal-like group ( X-CH(R)-Y where X, Y are N, S, or O) that may be acid/base labile, releasing an aldehyde.

$$$$
ATP
                    3D
 Structure written by MMmdl.
 46 48  0  0  1  0            999 V2000
   46.1070   45.1820   56.9500 P   0  0  0  0  0  0
   45.7790   46.3300   56.0520 O   0  0  0  0  0  0
   47.3820   44.4970   56.6260 O   0  5  0  0  0  0
   45.9720   45.5300   58.3750 O   0  0  0  0  0  0
   43.9110   43.7400   55.6550 P   0  0  0  0  0  0
   42.9750   42.7220   55.9860 O   0  0  0  0  0  0
   43.6030   44.7670   54.6780 O   0  5  0  0  0  0
   45.0410   44.0150   56.7380 O   0  0  0  0  0  0
   45.2280   42.6690   53.2570 P   0  0  2  0  0  0
   46.3800   43.3960   52.7880 O   0  0  0  0  0  0
   44.1830   42.1900   52.3510 O   0  0  0  0  0  0
   44.9170   42.7160   54.7890 O   0  0  0  0  0  0
   46.1720   41.5680   53.3020 O   0  0  0  0  0  0
   46.6090   40.4220   53.5420 C   0  0  0  0  0  0
   46.5200   38.9890   53.3640 C   0  0  1  0  0  0
   46.7850   38.9080   51.9480 O   0  0  0  0  0  0
   47.8080   38.8740   54.1120 C   0  0  1  0  0  0
   47.7130   38.3570   55.4230 O   0  0  0  0  0  0
   48.7190   38.1160   53.1390 C   0  0  1  0  0  0
   48.6320   36.7370   53.4250 O   0  0  0  0  0  0
   48.1330   38.4090   51.7210 C   0  0  2  0  0  0
   48.8460   39.4640   50.9860 N   0  0  0  0  0  0
   48.6160   40.8420   50.9450 C   0  0  0  0  0  0
   49.4250   41.4890   50.1650 N   0  3  0  0  0  0
   50.2320   40.4700   49.6640 C   0  0  0  0  0  0
   51.3080   40.4660   48.7310 C   0  0  0  0  0  0
   51.7210   41.5680   48.1290 N   0  0  0  0  0  0
   51.9120   39.2740   48.4470 N   0  0  0  0  0  0
   51.4930   38.1510   49.0290 C   0  0  0  0  0  0
   50.4910   38.0160   49.9000 N   0  0  0  0  0  0
   49.8920   39.2530   50.1710 C   0  0  0  0  0  0
   46.5992   46.3224   58.8095 H   0  0  0  0  0  0
   43.3173   42.8293   52.1230 H   0  0  0  0  0  0
   47.6492   40.3457   53.1926 H   0  0  0  0  0  0
   46.5714   40.2346   54.6253 H   0  0  0  0  0  0
   45.6654   38.3452   53.6190 H   0  0  0  0  0  0
   48.2020   39.8423   54.4542 H   0  0  0  0  0  0
   47.0751   38.8571   56.1666 H   0  0  0  0  0  0
   49.7910   38.3380   53.2466 H   0  0  0  0  0  0
   49.0003   36.3505   54.3868 H   0  0  0  0  0  0
   48.1676   37.5175   51.0776 H   0  0  0  0  0  0
   47.8360   41.3900   51.4990 H   0  0  0  0  0  0
   52.4910   41.5650   47.4600 H   0  0  0  0  0  0
   52.0360   37.2290   48.7590 H   0  0  0  0  0  0
   52.7492   39.2376   47.7344 H   0  0  0  0  0  0
   49.3328   42.5801   50.0600 H   0  0  0  0  0  0
  1  2  2  0  0  0
  1  3  1  0  0  0
  1  4  1  0  0  0
  1  8  1  0  0  0
  4 32  1  0  0  0
  5  6  2  0  0  0
  5  7  1  0  0  0
  5  8  1  0  0  0
  5 12  1  0  0  0
  9 10  2  0  0  0
  9 11  1  0  0  0
  9 12  1  0  0  0
  9 13  1  0  0  0
 11 33  1  0  0  0
 13 14  1  0  0  0
 14 15  1  0  0  0
 14 34  1  0  0  0
 14 35  1  0  0  0
 15 16  1  0  0  0
 15 17  1  0  0  0
 15 36  1  0  0  0
 16 21  1  0  0  0
 17 18  1  0  0  0
 17 19  1  0  0  0
 17 37  1  0  0  0
 18 38  1  0  0  0
 19 20  1  0  0  0
 19 21  1  0  0  0
 19 39  1  0  0  0
 20 40  1  0  0  0
 21 22  1  0  0  0
 21 41  1  0  0  0
 22 23  1  0  0  0
 22 31  1  0  0  0
 23 24  2  0  0  0
 23 42  1  0  0  0
 24 25  1  0  0  0
 24 46  1  0  0  0
 25 26  1  0  0  0
 25 31  2  0  0  0
 26 27  2  0  0  0
 26 28  1  0  0  0
 27 43  1  0  0  0
 28 29  1  0  0  0
 28 45  1  0  0  0
 29 30  2  0  0  0
 29 44  1  0  0  0
 30 31  1  0  0  0
M  CHG  3   3  -1   7  -1  24   1
M  END
> <s_m_source_file>
/cbio/jclab/home/rustenburg/PFK/Epik-Ligands/Results/InProgress/ADENOSINE-5'-TRIPHOSPHATE/pH_4.0/ADENOSINE-5'-TRIPHOSPHATE_pH_4.0-before_epik.mol2

> <i_m_source_file_index>
1

> <r_epik_Ionization_Penalty>
  1.8583

> <r_epik_Ionization_Penalty_Charging>
  0.6730

> <r_epik_Ionization_Penalty_Neutral>
  1.1853

> <r_epik_State_Penalty>
  5.5420

> <r_epik_Charging_Adjusted_Penalty>
6.21504641046249

> <i_epik_Tot_Q>
-1

> <i_epik_Tot_abs_Q>
3

> <s_epik_Chemistry_Notes>
This compound contains an acetal/aminal-like group ( X-CH(R)-Y where X, Y are N, S, or O) that may be acid/base labile, releasing an aldehyde.

$$$$
ATP
                    3D
 Structure written by MMmdl.
 45 47  0  0  1  0            999 V2000
   46.1070   45.1820   56.9500 P   0  0  0  0  0  0
   45.7790   46.3300   56.0520 O   0  0  0  0  0  0
   47.3820   44.4970   56.6260 O   0  5  0  0  0  0
   45.9720   45.5300   58.3750 O   0  0  0  0  0  0
   43.9110   43.7400   55.6550 P   0  0  0  0  0  0
   42.9750   42.7220   55.9860 O   0  0  0  0  0  0
   43.6030   44.7670   54.6780 O   0  5  0  0  0  0
   45.0410   44.0150   56.7380 O   0  0  0  0  0  0
   45.2280   42.6690   53.2570 P   0  0  2  0  0  0
   46.3800   43.3960   52.7880 O   0  0  0  0  0  0
   44.1830   42.1900   52.3510 O   0  0  0  0  0  0
   44.9170   42.7160   54.7890 O   0  0  0  0  0  0
   46.1720   41.5680   53.3020 O   0  0  0  0  0  0
   46.6090   40.4220   53.5420 C   0  0  0  0  0  0
   46.5200   38.9890   53.3640 C   0  0  1  0  0  0
   46.7850   38.9080   51.9480 O   0  0  0  0  0  0
   47.8080   38.8740   54.1120 C   0  0  1  0  0  0
   47.7130   38.3570   55.4230 O   0  0  0  0  0  0
   48.7190   38.1160   53.1390 C   0  0  1  0  0  0
   48.6320   36.7370   53.4250 O   0  0  0  0  0  0
   48.1330   38.4090   51.7210 C   0  0  2  0  0  0
   48.8460   39.4640   50.9860 N   0  0  0  0  0  0
   48.6160   40.8420   50.9450 C   0  0  0  0  0  0
   49.4250   41.4890   50.1650 N   0  0  0  0  0  0
   50.2320   40.4700   49.6640 C   0  0  0  0  0  0
   51.3080   40.4660   48.7310 C   0  0  0  0  0  0
   51.7210   41.5680   48.1290 N   0  0  0  0  0  0
   51.9120   39.2740   48.4470 N   0  0  0  0  0  0
   51.4930   38.1510   49.0290 C   0  0  0  0  0  0
   50.4910   38.0160   49.9000 N   0  0  0  0  0  0
   49.8920   39.2530   50.1710 C   0  0  0  0  0  0
   46.5992   46.3224   58.8095 H   0  0  0  0  0  0
   43.3173   42.8293   52.1230 H   0  0  0  0  0  0
   47.6492   40.3457   53.1926 H   0  0  0  0  0  0
   46.5714   40.2346   54.6253 H   0  0  0  0  0  0
   45.6654   38.3452   53.6190 H   0  0  0  0  0  0
   48.2020   39.8423   54.4542 H   0  0  0  0  0  0
   47.0751   38.8571   56.1666 H   0  0  0  0  0  0
   49.7910   38.3380   53.2466 H   0  0  0  0  0  0
   49.0003   36.3505   54.3868 H   0  0  0  0  0  0
   48.1676   37.5175   51.0776 H   0  0  0  0  0  0
   47.8360   41.3900   51.4990 H   0  0  0  0  0  0
   51.9400   42.2520   48.8520 H   0  0  0  0  0  0
   52.0360   37.2290   48.7590 H   0  0  0  0  0  0
   52.7492   39.2376   47.7344 H   0  0  0  0  0  0
  1  2  2  0  0  0
  1  3  1  0  0  0
  1  4  1  0  0  0
  1  8  1  0  0  0
  4 32  1  0  0  0
  5  6  2  0  0  0
  5  7  1  0  0  0
  5  8  1  0  0  0
  5 12  1  0  0  0
  9 10  2  0  0  0
  9 11  1  0  0  0
  9 12  1  0  0  0
  9 13  1  0  0  0
 11 33  1  0  0  0
 13 14  1  0  0  0
 14 15  1  0  0  0
 14 34  1  0  0  0
 14 35  1  0  0  0
 15 16  1  0  0  0
 15 17  1  0  0  0
 15 36  1  0  0  0
 16 21  1  0  0  0
 17 18  1  0  0  0
 17 19  1  0  0  0
 17 37  1  0  0  0
 18 38  1  0  0  0
 19 20  1  0  0  0
 19 21  1  0  0  0
 19 39  1  0  0  0
 20 40  1  0  0  0
 21 22  1  0  0  0
 21 41  1  0  0  0
 22 23  1  0  0  0
 22 31  1  0  0  0
 23 24  2  0  0  0
 23 42  1  0  0  0
 24 25  1  0  0  0
 25 26  1  0  0  0
 25 31  2  0  0  0
 26 27  2  0  0  0
 26 28  1  0  0  0
 27 43  1  0  0  0
 28 29  1  0  0  0
 28 45  1  0  0  0
 29 30  2  0  0  0
 29 44  1  0  0  0
 30 31  1  0  0  0
M  CHG  2   3  -1   7  -1
M  END
> <s_m_source_file>
/cbio/jclab/home/rustenburg/PFK/Epik-Ligands/Results/InProgress/ADENOSINE-5'-TRIPHOSPHATE/pH_4.0/ADENOSINE-5'-TRIPHOSPHATE_pH_4.0-before_epik.mol2

> <i_m_source_file_index>
1

> <r_epik_Ionization_Penalty>
  4.0798

> <r_epik_Ionization_Penalty_Charging>
  3.2651

> <r_epik_Ionization_Penalty_Neutral>
  0.8147

> <r_epik_State_Penalty>
  5.6059

> <r_epik_Charging_Adjusted_Penalty>
8.87096480809723

> <i_epik_Tot_Q>
-2

> <i_epik_Tot_abs_Q>
2

> <s_epik_Chemistry_Notes>
This compound contains an acetal/aminal-like group ( X-CH(R)-Y where X, Y are N, S, or O) that may be acid/base labile, releasing an aldehyde.

$$$$
ATP
                    3D
 Structure written by MMmdl.
 45 47  0  0  1  0            999 V2000
   46.1070   45.1820   56.9500 P   0  0  0  0  0  0
   45.7790   46.3300   56.0520 O   0  0  0  0  0  0
   47.3820   44.4970   56.6260 O   0  5  0  0  0  0
   45.9720   45.5300   58.3750 O   0  0  0  0  0  0
   43.9110   43.7400   55.6550 P   0  0  0  0  0  0
   42.9750   42.7220   55.9860 O   0  0  0  0  0  0
   43.6030   44.7670   54.6780 O   0  5  0  0  0  0
   45.0410   44.0150   56.7380 O   0  0  0  0  0  0
   45.2280   42.6690   53.2570 P   0  0  2  0  0  0
   46.3800   43.3960   52.7880 O   0  0  0  0  0  0
   44.1830   42.1900   52.3510 O   0  0  0  0  0  0
   44.9170   42.7160   54.7890 O   0  0  0  0  0  0
   46.1720   41.5680   53.3020 O   0  0  0  0  0  0
   46.6090   40.4220   53.5420 C   0  0  0  0  0  0
   46.5200   38.9890   53.3640 C   0  0  1  0  0  0
   46.7850   38.9080   51.9480 O   0  0  0  0  0  0
   47.8080   38.8740   54.1120 C   0  0  1  0  0  0
   47.7130   38.3570   55.4230 O   0  0  0  0  0  0
   48.7190   38.1160   53.1390 C   0  0  1  0  0  0
   48.6320   36.7370   53.4250 O   0  0  0  0  0  0
   48.1330   38.4090   51.7210 C   0  0  2  0  0  0
   48.8460   39.4640   50.9860 N   0  0  0  0  0  0
   48.6160   40.8420   50.9450 C   0  0  0  0  0  0
   49.4250   41.4890   50.1650 N   0  0  0  0  0  0
   50.2320   40.4700   49.6640 C   0  0  0  0  0  0
   51.3080   40.4660   48.7310 C   0  0  0  0  0  0
   51.7210   41.5680   48.1290 N   0  0  0  0  0  0
   51.9120   39.2740   48.4470 N   0  0  0  0  0  0
   51.4930   38.1510   49.0290 C   0  0  0  0  0  0
   50.4910   38.0160   49.9000 N   0  0  0  0  0  0
   49.8920   39.2530   50.1710 C   0  0  0  0  0  0
   46.5992   46.3224   58.8095 H   0  0  0  0  0  0
   43.3173   42.8293   52.1230 H   0  0  0  0  0  0
   47.6492   40.3457   53.1926 H   0  0  0  0  0  0
   46.5714   40.2346   54.6253 H   0  0  0  0  0  0
   45.6654   38.3452   53.6190 H   0  0  0  0  0  0
   48.2020   39.8423   54.4542 H   0  0  0  0  0  0
   47.0751   38.8571   56.1666 H   0  0  0  0  0  0
   49.7910   38.3380   53.2466 H   0  0  0  0  0  0
   49.0003   36.3505   54.3868 H   0  0  0  0  0  0
   48.1676   37.5175   51.0776 H   0  0  0  0  0  0
   47.8360   41.3900   51.4990 H   0  0  0  0  0  0
   52.4910   41.5650   47.4600 H   0  0  0  0  0  0
   52.0360   37.2290   48.7590 H   0  0  0  0  0  0
   52.7492   39.2376   47.7344 H   0  0  0  0  0  0
  1  2  2  0  0  0
  1  3  1  0  0  0
  1  4  1  0  0  0
  1  8  1  0  0  0
  4 32  1  0  0  0
  5  6  2  0  0  0
  5  7  1  0  0  0
  5  8  1  0  0  0
  5 12  1  0  0  0
  9 10  2  0  0  0
  9 11  1  0  0  0
  9 12  1  0  0  0
  9 13  1  0  0  0
 11 33  1  0  0  0
 13 14  1  0  0  0
 14 15  1  0  0  0
 14 34  1  0  0  0
 14 35  1  0  0  0
 15 16  1  0  0  0
 15 17  1  0  0  0
 15 36  1  0  0  0
 16 21  1  0  0  0
 17 18  1  0  0  0
 17 19  1  0  0  0
 17 37  1  0  0  0
 18 38  1  0  0  0
 19 20  1  0  0  0
 19 21  1  0  0  0
 19 39  1  0  0  0
 20 40  1  0  0  0
 21 22  1  0  0  0
 21 41  1  0  0  0
 22 23  1  0  0  0
 22 31  1  0  0  0
 23 24  2  0  0  0
 23 42  1  0  0  0
 24 25  1  0  0  0
 25 26  1  0  0  0
 25 31  2  0  0  0
 26 27  2  0  0  0
 26 28  1  0  0  0
 27 43  1  0  0  0
 28 29  1  0  0  0
 28 45  1  0  0  0
 29 30  2  0  0  0
 29 44  1  0  0  0
 30 31  1  0  0  0
M  CHG  2   3  -1   7  -1
M  END
> <s_m_source_file>
/cbio/jclab/home/rustenburg/PFK/Epik-Ligands/Results/InProgress/ADENOSINE-5'-TRIPHOSPHATE/pH_4.0/ADENOSINE-5'-TRIPHOSPHATE_pH_4.0-before_epik.mol2

> <i_m_source_file_index>
1

> <r_epik_Ionization_Penalty>
  4.0798

> <r_epik_Ionization_Penalty_Charging>
  3.2651

> <r_epik_Ionization_Penalty_Neutral>
  0.8147

> <r_epik_State_Penalty>
  5.6059

> <r_epik_Charging_Adjusted_Penalty>
8.87096480809723

> <i_epik_Tot_Q>
-2

> <i_epik_Tot_abs_Q>
2

> <s_epik_Chemistry_Notes>
This compound contains an acetal/aminal-like group ( X-CH(R)-Y where X, Y are N, S, or O) that may be acid/base labile, releasing an aldehyde.

$$$$
ATP
                    3D
 Structure written by MMmdl.
 46 48  0  0  1  0            999 V2000
   46.1070   45.1820   56.9500 P   0  0  0  0  0  0
   45.7790   46.3300   56.0520 O   0  0  0  0  0  0
   47.3820   44.4970   56.6260 O   0  5  0  0  0  0
   45.9720   45.5300   58.3750 O   0  5  0  0  0  0
   43.9110   43.7400   55.6550 P   0  0  1  0  0  0
   42.9750   42.7220   55.9860 O   0  0  0  0  0  0
   43.6030   44.7670   54.6780 O   0  0  0  0  0  0
   45.0410   44.0150   56.7380 O   0  0  0  0  0  0
   45.2280   42.6690   53.2570 P   0  0  2  0  0  0
   46.3800   43.3960   52.7880 O   0  0  0  0  0  0
   44.1830   42.1900   52.3510 O   0  0  0  0  0  0
   44.9170   42.7160   54.7890 O   0  0  0  0  0  0
   46.1720   41.5680   53.3020 O   0  0  0  0  0  0
   46.6090   40.4220   53.5420 C   0  0  0  0  0  0
   46.5200   38.9890   53.3640 C   0  0  1  0  0  0
   46.7850   38.9080   51.9480 O   0  0  0  0  0  0
   47.8080   38.8740   54.1120 C   0  0  1  0  0  0
   47.7130   38.3570   55.4230 O   0  0  0  0  0  0
   48.7190   38.1160   53.1390 C   0  0  1  0  0  0
   48.6320   36.7370   53.4250 O   0  0  0  0  0  0
   48.1330   38.4090   51.7210 C   0  0  2  0  0  0
   48.8460   39.4640   50.9860 N   0  0  0  0  0  0
   48.6160   40.8420   50.9450 C   0  0  0  0  0  0
   49.4250   41.4890   50.1650 N   0  0  0  0  0  0
   50.2320   40.4700   49.6640 C   0  0  0  0  0  0
   51.3080   40.4660   48.7310 C   0  0  0  0  0  0
   51.7210   41.5680   48.1290 N   0  0  0  0  0  0
   51.9120   39.2740   48.4470 N   0  3  0  0  0  0
   51.4930   38.1510   49.0290 C   0  0  0  0  0  0
   50.4910   38.0160   49.9000 N   0  0  0  0  0  0
   49.8920   39.2530   50.1710 C   0  0  0  0  0  0
   42.9452   45.6055   54.9502 H   0  0  0  0  0  0
   43.3173   42.8293   52.1230 H   0  0  0  0  0  0
   47.6492   40.3457   53.1926 H   0  0  0  0  0  0
   46.5714   40.2346   54.6253 H   0  0  0  0  0  0
   45.6654   38.3452   53.6190 H   0  0  0  0  0  0
   48.2020   39.8423   54.4542 H   0  0  0  0  0  0
   47.0751   38.8571   56.1666 H   0  0  0  0  0  0
   49.7910   38.3380   53.2466 H   0  0  0  0  0  0
   49.0003   36.3505   54.3868 H   0  0  0  0  0  0
   48.1676   37.5175   51.0776 H   0  0  0  0  0  0
   47.8360   41.3900   51.4990 H   0  0  0  0  0  0
   51.2389   42.5309   48.3533 H   0  0  0  0  0  0
   52.5468   41.5221   47.4038 H   0  0  0  0  0  0
   52.0360   37.2290   48.7590 H   0  0  0  0  0  0
   52.7492   39.2376   47.7344 H   0  0  0  0  0  0
  1  2  2  0  0  0
  1  3  1  0  0  0
  1  4  1  0  0  0
  1  8  1  0  0  0
  5  6  2  0  0  0
  5  7  1  0  0  0
  5  8  1  0  0  0
  5 12  1  0  0  0
  7 32  1  0  0  0
  9 10  2  0  0  0
  9 11  1  0  0  0
  9 12  1  0  0  0
  9 13  1  0  0  0
 11 33  1  0  0  0
 13 14  1  0  0  0
 14 15  1  0  0  0
 14 34  1  0  0  0
 14 35  1  0  0  0
 15 16  1  0  0  0
 15 17  1  0  0  0
 15 36  1  0  0  0
 16 21  1  0  0  0
 17 18  1  0  0  0
 17 19  1  0  0  0
 17 37  1  0  0  0
 18 38  1  0  0  0
 19 20  1  0  0  0
 19 21  1  0  0  0
 19 39  1  0  0  0
 20 40  1  0  0  0
 21 22  1  0  0  0
 21 41  1  0  0  0
 22 23  1  0  0  0
 22 31  1  0  0  0
 23 24  2  0  0  0
 23 42  1  0  0  0
 24 25  1  0  0  0
 25 26  2  0  0  0
 25 31  1  0  0  0
 26 27  1  0  0  0
 26 28  1  0  0  0
 27 43  1  0  0  0
 27 44  1  0  0  0
 28 29  2  0  0  0
 28 46  1  0  0  0
 29 30  1  0  0  0
 29 45  1  0  0  0
 30 31  2  0  0  0
M  CHG  3   3  -1   4  -1  28   1
M  END
> <s_m_source_file>
/cbio/jclab/home/rustenburg/PFK/Epik-Ligands/Results/InProgress/ADENOSINE-5'-TRIPHOSPHATE/pH_4.0/ADENOSINE-5'-TRIPHOSPHATE_pH_4.0-before_epik.mol2

> <i_m_source_file_index>
1

> <r_epik_Ionization_Penalty>
  4.3841

> <r_epik_Ionization_Penalty_Charging>
  2.6227

> <r_epik_Ionization_Penalty_Neutral>
  1.7614

> <r_epik_State_Penalty>
  5.6355

> <r_epik_Charging_Adjusted_Penalty>
8.25820037478773

> <i_epik_Tot_Q>
-1

> <i_epik_Tot_abs_Q>
3

> <s_epik_Chemistry_Notes>
This compound contains an acetal/aminal-like group ( X-CH(R)-Y where X, Y are N, S, or O) that may be acid/base labile, releasing an aldehyde.

$$$$
ATP
                    3D
 Structure written by MMmdl.
 46 48  0  0  1  0            999 V2000
   46.1070   45.1820   56.9500 P   0  0  0  0  0  0
   45.7790   46.3300   56.0520 O   0  0  0  0  0  0
   47.3820   44.4970   56.6260 O   0  5  0  0  0  0
   45.9720   45.5300   58.3750 O   0  0  0  0  0  0
   43.9110   43.7400   55.6550 P   0  0  1  0  0  0
   42.9750   42.7220   55.9860 O   0  0  0  0  0  0
   43.6030   44.7670   54.6780 O   0  0  0  0  0  0
   45.0410   44.0150   56.7380 O   0  0  0  0  0  0
   45.2280   42.6690   53.2570 P   0  0  0  0  0  0
   46.3800   43.3960   52.7880 O   0  0  0  0  0  0
   44.1830   42.1900   52.3510 O   0  5  0  0  0  0
   44.9170   42.7160   54.7890 O   0  0  0  0  0  0
   46.1720   41.5680   53.3020 O   0  0  0  0  0  0
   46.6090   40.4220   53.5420 C   0  0  0  0  0  0
   46.5200   38.9890   53.3640 C   0  0  1  0  0  0
   46.7850   38.9080   51.9480 O   0  0  0  0  0  0
   47.8080   38.8740   54.1120 C   0  0  1  0  0  0
   47.7130   38.3570   55.4230 O   0  0  0  0  0  0
   48.7190   38.1160   53.1390 C   0  0  1  0  0  0
   48.6320   36.7370   53.4250 O   0  0  0  0  0  0
   48.1330   38.4090   51.7210 C   0  0  2  0  0  0
   48.8460   39.4640   50.9860 N   0  0  0  0  0  0
   48.6160   40.8420   50.9450 C   0  0  0  0  0  0
   49.4250   41.4890   50.1650 N   0  3  0  0  0  0
   50.2320   40.4700   49.6640 C   0  0  0  0  0  0
   51.3080   40.4660   48.7310 C   0  0  0  0  0  0
   51.7210   41.5680   48.1290 N   0  0  0  0  0  0
   51.9120   39.2740   48.4470 N   0  0  0  0  0  0
   51.4930   38.1510   49.0290 C   0  0  0  0  0  0
   50.4910   38.0160   49.9000 N   0  0  0  0  0  0
   49.8920   39.2530   50.1710 C   0  0  0  0  0  0
   46.5992   46.3224   58.8095 H   0  0  0  0  0  0
   42.9452   45.6055   54.9502 H   0  0  0  0  0  0
   47.6492   40.3457   53.1926 H   0  0  0  0  0  0
   46.5714   40.2346   54.6253 H   0  0  0  0  0  0
   45.6654   38.3452   53.6190 H   0  0  0  0  0  0
   48.2020   39.8423   54.4542 H   0  0  0  0  0  0
   47.0751   38.8571   56.1666 H   0  0  0  0  0  0
   49.7910   38.3380   53.2466 H   0  0  0  0  0  0
   49.0003   36.3505   54.3868 H   0  0  0  0  0  0
   48.1676   37.5175   51.0776 H   0  0  0  0  0  0
   47.8360   41.3900   51.4990 H   0  0  0  0  0  0
   51.9400   42.2520   48.8520 H   0  0  0  0  0  0
   52.0360   37.2290   48.7590 H   0  0  0  0  0  0
   52.7492   39.2376   47.7344 H   0  0  0  0  0  0
   49.3328   42.5801   50.0600 H   0  0  0  0  0  0
  1  2  2  0  0  0
  1  3  1  0  0  0
  1  4  1  0  0  0
  1  8  1  0  0  0
  4 32  1  0  0  0
  5  6  2  0  0  0
  5  7  1  0  0  0
  5  8  1  0  0  0
  5 12  1  0  0  0
  7 33  1  0  0  0
  9 10  2  0  0  0
  9 11  1  0  0  0
  9 12  1  0  0  0
  9 13  1  0  0  0
 13 14  1  0  0  0
 14 15  1  0  0  0
 14 34  1  0  0  0
 14 35  1  0  0  0
 15 16  1  0  0  0
 15 17  1  0  0  0
 15 36  1  0  0  0
 16 21  1  0  0  0
 17 18  1  0  0  0
 17 19  1  0  0  0
 17 37  1  0  0  0
 18 38  1  0  0  0
 19 20  1  0  0  0
 19 21  1  0  0  0
 19 39  1  0  0  0
 20 40  1  0  0  0
 21 22  1  0  0  0
 21 41  1  0  0  0
 22 23  1  0  0  0
 22 31  1  0  0  0
 23 24  2  0  0  0
 23 42  1  0  0  0
 24 25  1  0  0  0
 24 46  1  0  0  0
 25 26  1  0  0  0
 25 31  2  0  0  0
 26 27  2  0  0  0
 26 28  1  0  0  0
 27 43  1  0  0  0
 28 29  1  0  0  0
 28 45  1  0  0  0
 29 30  2  0  0  0
 29 44  1  0  0  0
 30 31  1  0  0  0
M  CHG  3   3  -1  11  -1  24   1
M  END
> <s_m_source_file>
/cbio/jclab/home/rustenburg/PFK/Epik-Ligands/Results/InProgress/ADENOSINE-5'-TRIPHOSPHATE/pH_4.0/ADENOSINE-5'-TRIPHOSPHATE_pH_4.0-before_epik.mol2

> <i_m_source_file_index>
1

> <r_epik_Ionization_Penalty>
  2.0544

> <r_epik_Ionization_Penalty_Charging>
  0.6471

> <r_epik_Ionization_Penalty_Neutral>
  1.4073

> <r_epik_State_Penalty>
  5.8229

> <r_epik_Charging_Adjusted_Penalty>
6.47002342117427

> <i_epik_Tot_Q>
-1

> <i_epik_Tot_abs_Q>
3

> <s_epik_Chemistry_Notes>
This compound contains an acetal/aminal-like group ( X-CH(R)-Y where X, Y are N, S, or O) that may be acid/base labile, releasing an aldehyde.

$$$$
ATP
                    3D
 Structure written by MMmdl.
 46 48  0  0  1  0            999 V2000
   46.1070   45.1820   56.9500 P   0  0  0  0  0  0
   45.7790   46.3300   56.0520 O   0  0  0  0  0  0
   47.3820   44.4970   56.6260 O   0  5  0  0  0  0
   45.9720   45.5300   58.3750 O   0  0  0  0  0  0
   43.9110   43.7400   55.6550 P   0  0  1  0  0  0
   42.9750   42.7220   55.9860 O   0  0  0  0  0  0
   43.6030   44.7670   54.6780 O   0  0  0  0  0  0
   45.0410   44.0150   56.7380 O   0  0  0  0  0  0
   45.2280   42.6690   53.2570 P   0  0  0  0  0  0
   46.3800   43.3960   52.7880 O   0  0  0  0  0  0
   44.1830   42.1900   52.3510 O   0  5  0  0  0  0
   44.9170   42.7160   54.7890 O   0  0  0  0  0  0
   46.1720   41.5680   53.3020 O   0  0  0  0  0  0
   46.6090   40.4220   53.5420 C   0  0  0  0  0  0
   46.5200   38.9890   53.3640 C   0  0  1  0  0  0
   46.7850   38.9080   51.9480 O   0  0  0  0  0  0
   47.8080   38.8740   54.1120 C   0  0  1  0  0  0
   47.7130   38.3570   55.4230 O   0  0  0  0  0  0
   48.7190   38.1160   53.1390 C   0  0  1  0  0  0
   48.6320   36.7370   53.4250 O   0  0  0  0  0  0
   48.1330   38.4090   51.7210 C   0  0  2  0  0  0
   48.8460   39.4640   50.9860 N   0  0  0  0  0  0
   48.6160   40.8420   50.9450 C   0  0  0  0  0  0
   49.4250   41.4890   50.1650 N   0  3  0  0  0  0
   50.2320   40.4700   49.6640 C   0  0  0  0  0  0
   51.3080   40.4660   48.7310 C   0  0  0  0  0  0
   51.7210   41.5680   48.1290 N   0  0  0  0  0  0
   51.9120   39.2740   48.4470 N   0  0  0  0  0  0
   51.4930   38.1510   49.0290 C   0  0  0  0  0  0
   50.4910   38.0160   49.9000 N   0  0  0  0  0  0
   49.8920   39.2530   50.1710 C   0  0  0  0  0  0
   46.5992   46.3224   58.8095 H   0  0  0  0  0  0
   42.9452   45.6055   54.9502 H   0  0  0  0  0  0
   47.6492   40.3457   53.1926 H   0  0  0  0  0  0
   46.5714   40.2346   54.6253 H   0  0  0  0  0  0
   45.6654   38.3452   53.6190 H   0  0  0  0  0  0
   48.2020   39.8423   54.4542 H   0  0  0  0  0  0
   47.0751   38.8571   56.1666 H   0  0  0  0  0  0
   49.7910   38.3380   53.2466 H   0  0  0  0  0  0
   49.0003   36.3505   54.3868 H   0  0  0  0  0  0
   48.1676   37.5175   51.0776 H   0  0  0  0  0  0
   47.8360   41.3900   51.4990 H   0  0  0  0  0  0
   52.4910   41.5650   47.4600 H   0  0  0  0  0  0
   52.0360   37.2290   48.7590 H   0  0  0  0  0  0
   52.7492   39.2376   47.7344 H   0  0  0  0  0  0
   49.3328   42.5801   50.0600 H   0  0  0  0  0  0
  1  2  2  0  0  0
  1  3  1  0  0  0
  1  4  1  0  0  0
  1  8  1  0  0  0
  4 32  1  0  0  0
  5  6  2  0  0  0
  5  7  1  0  0  0
  5  8  1  0  0  0
  5 12  1  0  0  0
  7 33  1  0  0  0
  9 10  2  0  0  0
  9 11  1  0  0  0
  9 12  1  0  0  0
  9 13  1  0  0  0
 13 14  1  0  0  0
 14 15  1  0  0  0
 14 34  1  0  0  0
 14 35  1  0  0  0
 15 16  1  0  0  0
 15 17  1  0  0  0
 15 36  1  0  0  0
 16 21  1  0  0  0
 17 18  1  0  0  0
 17 19  1  0  0  0
 17 37  1  0  0  0
 18 38  1  0  0  0
 19 20  1  0  0  0
 19 21  1  0  0  0
 19 39  1  0  0  0
 20 40  1  0  0  0
 21 22  1  0  0  0
 21 41  1  0  0  0
 22 23  1  0  0  0
 22 31  1  0  0  0
 23 24  2  0  0  0
 23 42  1  0  0  0
 24 25  1  0  0  0
 24 46  1  0  0  0
 25 26  1  0  0  0
 25 31  2  0  0  0
 26 27  2  0  0  0
 26 28  1  0  0  0
 27 43  1  0  0  0
 28 29  1  0  0  0
 28 45  1  0  0  0
 29 30  2  0  0  0
 29 44  1  0  0  0
 30 31  1  0  0  0
M  CHG  3   3  -1  11  -1  24   1
M  END
> <s_m_source_file>
/cbio/jclab/home/rustenburg/PFK/Epik-Ligands/Results/InProgress/ADENOSINE-5'-TRIPHOSPHATE/pH_4.0/ADENOSINE-5'-TRIPHOSPHATE_pH_4.0-before_epik.mol2

> <i_m_source_file_index>
1

> <r_epik_Ionization_Penalty>
  2.0544

> <r_epik_Ionization_Penalty_Charging>
  0.6471

> <r_epik_Ionization_Penalty_Neutral>
  1.4073

> <r_epik_State_Penalty>
  5.8229

> <r_epik_Charging_Adjusted_Penalty>
6.47002342117427

> <i_epik_Tot_Q>
-1

> <i_epik_Tot_abs_Q>
3

> <s_epik_Chemistry_Notes>
This compound contains an acetal/aminal-like group ( X-CH(R)-Y where X, Y are N, S, or O) that may be acid/base labile, releasing an aldehyde.

$$$$
ATP
                    3D
 Structure written by MMmdl.
 45 47  0  0  1  0            999 V2000
   46.1070   45.1820   56.9500 P   0  0  0  0  0  0
   45.7790   46.3300   56.0520 O   0  0  0  0  0  0
   47.3820   44.4970   56.6260 O   0  5  0  0  0  0
   45.9720   45.5300   58.3750 O   0  0  0  0  0  0
   43.9110   43.7400   55.6550 P   0  0  1  0  0  0
   42.9750   42.7220   55.9860 O   0  0  0  0  0  0
   43.6030   44.7670   54.6780 O   0  0  0  0  0  0
   45.0410   44.0150   56.7380 O   0  0  0  0  0  0
   45.2280   42.6690   53.2570 P   0  0  0  0  0  0
   46.3800   43.3960   52.7880 O   0  0  0  0  0  0
   44.1830   42.1900   52.3510 O   0  5  0  0  0  0
   44.9170   42.7160   54.7890 O   0  0  0  0  0  0
   46.1720   41.5680   53.3020 O   0  0  0  0  0  0
   46.6090   40.4220   53.5420 C   0  0  0  0  0  0
   46.5200   38.9890   53.3640 C   0  0  1  0  0  0
   46.7850   38.9080   51.9480 O   0  0  0  0  0  0
   47.8080   38.8740   54.1120 C   0  0  1  0  0  0
   47.7130   38.3570   55.4230 O   0  0  0  0  0  0
   48.7190   38.1160   53.1390 C   0  0  1  0  0  0
   48.6320   36.7370   53.4250 O   0  0  0  0  0  0
   48.1330   38.4090   51.7210 C   0  0  2  0  0  0
   48.8460   39.4640   50.9860 N   0  0  0  0  0  0
   48.6160   40.8420   50.9450 C   0  0  0  0  0  0
   49.4250   41.4890   50.1650 N   0  0  0  0  0  0
   50.2320   40.4700   49.6640 C   0  0  0  0  0  0
   51.3080   40.4660   48.7310 C   0  0  0  0  0  0
   51.7210   41.5680   48.1290 N   0  0  0  0  0  0
   51.9120   39.2740   48.4470 N   0  0  0  0  0  0
   51.4930   38.1510   49.0290 C   0  0  0  0  0  0
   50.4910   38.0160   49.9000 N   0  0  0  0  0  0
   49.8920   39.2530   50.1710 C   0  0  0  0  0  0
   46.5992   46.3224   58.8095 H   0  0  0  0  0  0
   42.9452   45.6055   54.9502 H   0  0  0  0  0  0
   47.6492   40.3457   53.1926 H   0  0  0  0  0  0
   46.5714   40.2346   54.6253 H   0  0  0  0  0  0
   45.6654   38.3452   53.6190 H   0  0  0  0  0  0
   48.2020   39.8423   54.4542 H   0  0  0  0  0  0
   47.0751   38.8571   56.1666 H   0  0  0  0  0  0
   49.7910   38.3380   53.2466 H   0  0  0  0  0  0
   49.0003   36.3505   54.3868 H   0  0  0  0  0  0
   48.1676   37.5175   51.0776 H   0  0  0  0  0  0
   47.8360   41.3900   51.4990 H   0  0  0  0  0  0
   52.4910   41.5650   47.4600 H   0  0  0  0  0  0
   52.0360   37.2290   48.7590 H   0  0  0  0  0  0
   52.7492   39.2376   47.7344 H   0  0  0  0  0  0
  1  2  2  0  0  0
  1  3  1  0  0  0
  1  4  1  0  0  0
  1  8  1  0  0  0
  4 32  1  0  0  0
  5  6  2  0  0  0
  5  7  1  0  0  0
  5  8  1  0  0  0
  5 12  1  0  0  0
  7 33  1  0  0  0
  9 10  2  0  0  0
  9 11  1  0  0  0
  9 12  1  0  0  0
  9 13  1  0  0  0
 13 14  1  0  0  0
 14 15  1  0  0  0
 14 34  1  0  0  0
 14 35  1  0  0  0
 15 16  1  0  0  0
 15 17  1  0  0  0
 15 36  1  0  0  0
 16 21  1  0  0  0
 17 18  1  0  0  0
 17 19  1  0  0  0
 17 37  1  0  0  0
 18 38  1  0  0  0
 19 20  1  0  0  0
 19 21  1  0  0  0
 19 39  1  0  0  0
 20 40  1  0  0  0
 21 22  1  0  0  0
 21 41  1  0  0  0
 22 23  1  0  0  0
 22 31  1  0  0  0
 23 24  2  0  0  0
 23 42  1  0  0  0
 24 25  1  0  0  0
 25 26  1  0  0  0
 25 31  2  0  0  0
 26 27  2  0  0  0
 26 28  1  0  0  0
 27 43  1  0  0  0
 28 29  1  0  0  0
 28 45  1  0  0  0
 29 30  2  0  0  0
 29 44  1  0  0  0
 30 31  1  0  0  0
M  CHG  2   3  -1  11  -1
M  END
> <s_m_source_file>
/cbio/jclab/home/rustenburg/PFK/Epik-Ligands/Results/InProgress/ADENOSINE-5'-TRIPHOSPHATE/pH_4.0/ADENOSINE-5'-TRIPHOSPHATE_pH_4.0-before_epik.mol2

> <i_m_source_file_index>
1

> <r_epik_Ionization_Penalty>
  4.2810

> <r_epik_Ionization_Penalty_Charging>
  3.2399

> <r_epik_Ionization_Penalty_Neutral>
  1.0411

> <r_epik_State_Penalty>
  5.8729

> <r_epik_Charging_Adjusted_Penalty>
9.11278741959279

> <i_epik_Tot_Q>
-2

> <i_epik_Tot_abs_Q>
2

> <s_epik_Chemistry_Notes>
This compound contains an acetal/aminal-like group ( X-CH(R)-Y where X, Y are N, S, or O) that may be acid/base labile, releasing an aldehyde.

$$$$
ATP
                    3D
 Structure written by MMmdl.
 45 47  0  0  1  0            999 V2000
   46.1070   45.1820   56.9500 P   0  0  0  0  0  0
   45.7790   46.3300   56.0520 O   0  0  0  0  0  0
   47.3820   44.4970   56.6260 O   0  5  0  0  0  0
   45.9720   45.5300   58.3750 O   0  0  0  0  0  0
   43.9110   43.7400   55.6550 P   0  0  1  0  0  0
   42.9750   42.7220   55.9860 O   0  0  0  0  0  0
   43.6030   44.7670   54.6780 O   0  0  0  0  0  0
   45.0410   44.0150   56.7380 O   0  0  0  0  0  0
   45.2280   42.6690   53.2570 P   0  0  0  0  0  0
   46.3800   43.3960   52.7880 O   0  0  0  0  0  0
   44.1830   42.1900   52.3510 O   0  5  0  0  0  0
   44.9170   42.7160   54.7890 O   0  0  0  0  0  0
   46.1720   41.5680   53.3020 O   0  0  0  0  0  0
   46.6090   40.4220   53.5420 C   0  0  0  0  0  0
   46.5200   38.9890   53.3640 C   0  0  1  0  0  0
   46.7850   38.9080   51.9480 O   0  0  0  0  0  0
   47.8080   38.8740   54.1120 C   0  0  1  0  0  0
   47.7130   38.3570   55.4230 O   0  0  0  0  0  0
   48.7190   38.1160   53.1390 C   0  0  1  0  0  0
   48.6320   36.7370   53.4250 O   0  0  0  0  0  0
   48.1330   38.4090   51.7210 C   0  0  2  0  0  0
   48.8460   39.4640   50.9860 N   0  0  0  0  0  0
   48.6160   40.8420   50.9450 C   0  0  0  0  0  0
   49.4250   41.4890   50.1650 N   0  0  0  0  0  0
   50.2320   40.4700   49.6640 C   0  0  0  0  0  0
   51.3080   40.4660   48.7310 C   0  0  0  0  0  0
   51.7210   41.5680   48.1290 N   0  0  0  0  0  0
   51.9120   39.2740   48.4470 N   0  0  0  0  0  0
   51.4930   38.1510   49.0290 C   0  0  0  0  0  0
   50.4910   38.0160   49.9000 N   0  0  0  0  0  0
   49.8920   39.2530   50.1710 C   0  0  0  0  0  0
   46.5992   46.3224   58.8095 H   0  0  0  0  0  0
   42.9452   45.6055   54.9502 H   0  0  0  0  0  0
   47.6492   40.3457   53.1926 H   0  0  0  0  0  0
   46.5714   40.2346   54.6253 H   0  0  0  0  0  0
   45.6654   38.3452   53.6190 H   0  0  0  0  0  0
   48.2020   39.8423   54.4542 H   0  0  0  0  0  0
   47.0751   38.8571   56.1666 H   0  0  0  0  0  0
   49.7910   38.3380   53.2466 H   0  0  0  0  0  0
   49.0003   36.3505   54.3868 H   0  0  0  0  0  0
   48.1676   37.5175   51.0776 H   0  0  0  0  0  0
   47.8360   41.3900   51.4990 H   0  0  0  0  0  0
   51.9400   42.2520   48.8520 H   0  0  0  0  0  0
   52.0360   37.2290   48.7590 H   0  0  0  0  0  0
   52.7492   39.2376   47.7344 H   0  0  0  0  0  0
  1  2  2  0  0  0
  1  3  1  0  0  0
  1  4  1  0  0  0
  1  8  1  0  0  0
  4 32  1  0  0  0
  5  6  2  0  0  0
  5  7  1  0  0  0
  5  8  1  0  0  0
  5 12  1  0  0  0
  7 33  1  0  0  0
  9 10  2  0  0  0
  9 11  1  0  0  0
  9 12  1  0  0  0
  9 13  1  0  0  0
 13 14  1  0  0  0
 14 15  1  0  0  0
 14 34  1  0  0  0
 14 35  1  0  0  0
 15 16  1  0  0  0
 15 17  1  0  0  0
 15 36  1  0  0  0
 16 21  1  0  0  0
 17 18  1  0  0  0
 17 19  1  0  0  0
 17 37  1  0  0  0
 18 38  1  0  0  0
 19 20  1  0  0  0
 19 21  1  0  0  0
 19 39  1  0  0  0
 20 40  1  0  0  0
 21 22  1  0  0  0
 21 41  1  0  0  0
 22 23  1  0  0  0
 22 31  1  0  0  0
 23 24  2  0  0  0
 23 42  1  0  0  0
 24 25  1  0  0  0
 25 26  1  0  0  0
 25 31  2  0  0  0
 26 27  2  0  0  0
 26 28  1  0  0  0
 27 43  1  0  0  0
 28 29  1  0  0  0
 28 45  1  0  0  0
 29 30  2  0  0  0
 29 44  1  0  0  0
 30 31  1  0  0  0
M  CHG  2   3  -1  11  -1
M  END
> <s_m_source_file>
/cbio/jclab/home/rustenburg/PFK/Epik-Ligands/Results/InProgress/ADENOSINE-5'-TRIPHOSPHATE/pH_4.0/ADENOSINE-5'-TRIPHOSPHATE_pH_4.0-before_epik.mol2

> <i_m_source_file_index>
1

> <r_epik_Ionization_Penalty>
  4.2810

> <r_epik_Ionization_Penalty_Charging>
  3.2399

> <r_epik_Ionization_Penalty_Neutral>
  1.0411

> <r_epik_State_Penalty>
  5.8729

> <r_epik_Charging_Adjusted_Penalty>
9.11278741959279

> <i_epik_Tot_Q>
-2

> <i_epik_Tot_abs_Q>
2

> <s_epik_Chemistry_Notes>
This compound contains an acetal/aminal-like group ( X-CH(R)-Y where X, Y are N, S, or O) that may be acid/base labile, releasing an aldehyde.

$$$$
